$#########################################################
$# LOAD CASE: FFFTM070A3          
$# MSC.NASTRAN SUBCASE: 210010
$# SUBTITLE:  FFT0D2             
$#########################################################
$
$ INTACT
SUBCASE= 210010
SUBTITLE=  FFT0D2INTACT
LOAD=9021001
SPC=512
MPC=92100100
K2GG=KAAX
$
SUBCASE= 210011
SUBTITLE=  FFT0D2FAILSAFE 01
LOAD=9021001
SPC=512
MPC=92100101
K2GG=KAAX
$
SUBCASE= 210012
SUBTITLE=  FFT0D2FAILSAFE 02
LOAD=9021001
SPC=512
MPC=92100102
K2GG=KAAX
$
SUBCASE= 210013
SUBTITLE=  FFT0D2FAILSAFE 03
LOAD=9021001
SPC=512
MPC=92100103
K2GG=KAAX
$
SUBCASE= 210014
SUBTITLE=  FFT0D2FAILSAFE 04
LOAD=9021001
SPC=512
MPC=92100104
K2GG=KAAX
$
SUBCASE= 210015
SUBTITLE=  FFT0D2FAILSAFE 05
LOAD=9021001
SPC=512
MPC=92100105
K2GG=KAAX
$
SUBCASE= 210016
SUBTITLE=  FFT0D2FAILSAFE 06
LOAD=9021001
SPC=512
MPC=92100106
K2GG=KAAX
$
SUBCASE= 210017
SUBTITLE=  FFT0D2FAILSAFE 07
LOAD=9021001
SPC=512
MPC=92100107
K2GG=KAAX
$
SUBCASE= 210018
SUBTITLE=  FFT0D2FAILSAFE 08
LOAD=9021001
SPC=512
MPC=92100108
K2GG=KAAX
$
SUBCASE= 210019
SUBTITLE=  FFT0D2FAILSAFE 09
LOAD=9021001
SPC=512
MPC=92100109
K2GG=KAAX
$
$
$#########################################################
$# LOAD CASE: FFLDM39028          
$# MSC.NASTRAN SUBCASE: 210020
$# SUBTITLE:  FLD0DC             
$#########################################################
$
$ INTACT
SUBCASE= 210020
SUBTITLE=  FLD0DCINTACT
LOAD=9021002
SPC=512
MPC=92100200
K2GG=KAAX
$
SUBCASE= 210021
SUBTITLE=  FLD0DCFAILSAFE 01
LOAD=9021002
SPC=512
MPC=92100201
K2GG=KAAX
$
SUBCASE= 210022
SUBTITLE=  FLD0DCFAILSAFE 02
LOAD=9021002
SPC=512
MPC=92100202
K2GG=KAAX
$
SUBCASE= 210023
SUBTITLE=  FLD0DCFAILSAFE 03
LOAD=9021002
SPC=512
MPC=92100203
K2GG=KAAX
$
SUBCASE= 210024
SUBTITLE=  FLD0DCFAILSAFE 04
LOAD=9021002
SPC=512
MPC=92100204
K2GG=KAAX
$
SUBCASE= 210025
SUBTITLE=  FLD0DCFAILSAFE 05
LOAD=9021002
SPC=512
MPC=92100205
K2GG=KAAX
$
SUBCASE= 210026
SUBTITLE=  FLD0DCFAILSAFE 06
LOAD=9021002
SPC=512
MPC=92100206
K2GG=KAAX
$
SUBCASE= 210027
SUBTITLE=  FLD0DCFAILSAFE 07
LOAD=9021002
SPC=512
MPC=92100207
K2GG=KAAX
$
SUBCASE= 210028
SUBTITLE=  FLD0DCFAILSAFE 08
LOAD=9021002
SPC=512
MPC=92100208
K2GG=KAAX
$
SUBCASE= 210029
SUBTITLE=  FLD0DCFAILSAFE 09
LOAD=9021002
SPC=512
MPC=92100209
K2GG=KAAX
$
$
$#########################################################
$# LOAD CASE: FFLZM3904T          
$# MSC.NASTRAN SUBCASE: 210030
$# SUBTITLE:  FLZ0EH             
$#########################################################
$
$ INTACT
SUBCASE= 210030
SUBTITLE=  FLZ0EHINTACT
LOAD=9021003
SPC=512
MPC=92100300
K2GG=KAAX
$
SUBCASE= 210031
SUBTITLE=  FLZ0EHFAILSAFE 01
LOAD=9021003
SPC=512
MPC=92100301
K2GG=KAAX
$
SUBCASE= 210032
SUBTITLE=  FLZ0EHFAILSAFE 02
LOAD=9021003
SPC=512
MPC=92100302
K2GG=KAAX
$
SUBCASE= 210033
SUBTITLE=  FLZ0EHFAILSAFE 03
LOAD=9021003
SPC=512
MPC=92100303
K2GG=KAAX
$
SUBCASE= 210034
SUBTITLE=  FLZ0EHFAILSAFE 04
LOAD=9021003
SPC=512
MPC=92100304
K2GG=KAAX
$
SUBCASE= 210035
SUBTITLE=  FLZ0EHFAILSAFE 05
LOAD=9021003
SPC=512
MPC=92100305
K2GG=KAAX
$
SUBCASE= 210036
SUBTITLE=  FLZ0EHFAILSAFE 06
LOAD=9021003
SPC=512
MPC=92100306
K2GG=KAAX
$
SUBCASE= 210037
SUBTITLE=  FLZ0EHFAILSAFE 07
LOAD=9021003
SPC=512
MPC=92100307
K2GG=KAAX
$
SUBCASE= 210038
SUBTITLE=  FLZ0EHFAILSAFE 08
LOAD=9021003
SPC=512
MPC=92100308
K2GG=KAAX
$
SUBCASE= 210039
SUBTITLE=  FLZ0EHFAILSAFE 09
LOAD=9021003
SPC=512
MPC=92100309
K2GG=KAAX
$
$
$#########################################################
$# LOAD CASE: FFRAM12007          
$# MSC.NASTRAN SUBCASE: 210040
$# SUBTITLE:  FRA0EX             
$#########################################################
$
$ INTACT
SUBCASE= 210040
SUBTITLE=  FRA0EXINTACT
LOAD=9021004
SPC=512
MPC=92100400
K2GG=KAAX
$
SUBCASE= 210041
SUBTITLE=  FRA0EXFAILSAFE 01
LOAD=9021004
SPC=512
MPC=92100401
K2GG=KAAX
$
SUBCASE= 210042
SUBTITLE=  FRA0EXFAILSAFE 02
LOAD=9021004
SPC=512
MPC=92100402
K2GG=KAAX
$
SUBCASE= 210043
SUBTITLE=  FRA0EXFAILSAFE 03
LOAD=9021004
SPC=512
MPC=92100403
K2GG=KAAX
$
SUBCASE= 210044
SUBTITLE=  FRA0EXFAILSAFE 04
LOAD=9021004
SPC=512
MPC=92100404
K2GG=KAAX
$
SUBCASE= 210045
SUBTITLE=  FRA0EXFAILSAFE 05
LOAD=9021004
SPC=512
MPC=92100405
K2GG=KAAX
$
SUBCASE= 210046
SUBTITLE=  FRA0EXFAILSAFE 06
LOAD=9021004
SPC=512
MPC=92100406
K2GG=KAAX
$
SUBCASE= 210047
SUBTITLE=  FRA0EXFAILSAFE 07
LOAD=9021004
SPC=512
MPC=92100407
K2GG=KAAX
$
SUBCASE= 210048
SUBTITLE=  FRA0EXFAILSAFE 08
LOAD=9021004
SPC=512
MPC=92100408
K2GG=KAAX
$
SUBCASE= 210049
SUBTITLE=  FRA0EXFAILSAFE 09
LOAD=9021004
SPC=512
MPC=92100409
K2GG=KAAX
$
$
$#########################################################
$# LOAD CASE: FFROM10003          
$# MSC.NASTRAN SUBCASE: 210050
$# SUBTITLE:  FRO0K7             
$#########################################################
$
$ INTACT
SUBCASE= 210050
SUBTITLE=  FRO0K7INTACT
LOAD=9021005
SPC=512
MPC=92100500
K2GG=KAAX
$
SUBCASE= 210051
SUBTITLE=  FRO0K7FAILSAFE 01
LOAD=9021005
SPC=512
MPC=92100501
K2GG=KAAX
$
SUBCASE= 210052
SUBTITLE=  FRO0K7FAILSAFE 02
LOAD=9021005
SPC=512
MPC=92100502
K2GG=KAAX
$
SUBCASE= 210053
SUBTITLE=  FRO0K7FAILSAFE 03
LOAD=9021005
SPC=512
MPC=92100503
K2GG=KAAX
$
SUBCASE= 210054
SUBTITLE=  FRO0K7FAILSAFE 04
LOAD=9021005
SPC=512
MPC=92100504
K2GG=KAAX
$
SUBCASE= 210055
SUBTITLE=  FRO0K7FAILSAFE 05
LOAD=9021005
SPC=512
MPC=92100505
K2GG=KAAX
$
SUBCASE= 210056
SUBTITLE=  FRO0K7FAILSAFE 06
LOAD=9021005
SPC=512
MPC=92100506
K2GG=KAAX
$
SUBCASE= 210057
SUBTITLE=  FRO0K7FAILSAFE 07
LOAD=9021005
SPC=512
MPC=92100507
K2GG=KAAX
$
SUBCASE= 210058
SUBTITLE=  FRO0K7FAILSAFE 08
LOAD=9021005
SPC=512
MPC=92100508
K2GG=KAAX
$
SUBCASE= 210059
SUBTITLE=  FRO0K7FAILSAFE 09
LOAD=9021005
SPC=512
MPC=92100509
K2GG=KAAX
$
$
$#########################################################
$# LOAD CASE: FFZ1M20FAC          
$# MSC.NASTRAN SUBCASE: 210060
$# SUBTITLE:  FZ10KJ             
$#########################################################
$
$ INTACT
SUBCASE= 210060
SUBTITLE=  FZ10KJINTACT
LOAD=9021006
SPC=512
MPC=92100600
K2GG=KAAX
$
SUBCASE= 210061
SUBTITLE=  FZ10KJFAILSAFE 01
LOAD=9021006
SPC=512
MPC=92100601
K2GG=KAAX
$
SUBCASE= 210062
SUBTITLE=  FZ10KJFAILSAFE 02
LOAD=9021006
SPC=512
MPC=92100602
K2GG=KAAX
$
SUBCASE= 210063
SUBTITLE=  FZ10KJFAILSAFE 03
LOAD=9021006
SPC=512
MPC=92100603
K2GG=KAAX
$
SUBCASE= 210064
SUBTITLE=  FZ10KJFAILSAFE 04
LOAD=9021006
SPC=512
MPC=92100604
K2GG=KAAX
$
SUBCASE= 210065
SUBTITLE=  FZ10KJFAILSAFE 05
LOAD=9021006
SPC=512
MPC=92100605
K2GG=KAAX
$
SUBCASE= 210066
SUBTITLE=  FZ10KJFAILSAFE 06
LOAD=9021006
SPC=512
MPC=92100606
K2GG=KAAX
$
SUBCASE= 210067
SUBTITLE=  FZ10KJFAILSAFE 07
LOAD=9021006
SPC=512
MPC=92100607
K2GG=KAAX
$
SUBCASE= 210068
SUBTITLE=  FZ10KJFAILSAFE 08
LOAD=9021006
SPC=512
MPC=92100608
K2GG=KAAX
$
SUBCASE= 210069
SUBTITLE=  FZ10KJFAILSAFE 09
LOAD=9021006
SPC=512
MPC=92100609
K2GG=KAAX
$
$
$#########################################################
$# LOAD CASE: FFZ3M20FAC          
$# MSC.NASTRAN SUBCASE: 210070
$# SUBTITLE:  FZ30MF             
$#########################################################
$
$ INTACT
SUBCASE= 210070
SUBTITLE=  FZ30MFINTACT
LOAD=9021007
SPC=512
MPC=92100700
K2GG=KAAX
$
SUBCASE= 210071
SUBTITLE=  FZ30MFFAILSAFE 01
LOAD=9021007
SPC=512
MPC=92100701
K2GG=KAAX
$
SUBCASE= 210072
SUBTITLE=  FZ30MFFAILSAFE 02
LOAD=9021007
SPC=512
MPC=92100702
K2GG=KAAX
$
SUBCASE= 210073
SUBTITLE=  FZ30MFFAILSAFE 03
LOAD=9021007
SPC=512
MPC=92100703
K2GG=KAAX
$
SUBCASE= 210074
SUBTITLE=  FZ30MFFAILSAFE 04
LOAD=9021007
SPC=512
MPC=92100704
K2GG=KAAX
$
SUBCASE= 210075
SUBTITLE=  FZ30MFFAILSAFE 05
LOAD=9021007
SPC=512
MPC=92100705
K2GG=KAAX
$
SUBCASE= 210076
SUBTITLE=  FZ30MFFAILSAFE 06
LOAD=9021007
SPC=512
MPC=92100706
K2GG=KAAX
$
SUBCASE= 210077
SUBTITLE=  FZ30MFFAILSAFE 07
LOAD=9021007
SPC=512
MPC=92100707
K2GG=KAAX
$
SUBCASE= 210078
SUBTITLE=  FZ30MFFAILSAFE 08
LOAD=9021007
SPC=512
MPC=92100708
K2GG=KAAX
$
SUBCASE= 210079
SUBTITLE=  FZ30MFFAILSAFE 09
LOAD=9021007
SPC=512
MPC=92100709
K2GG=KAAX
$
$
$#########################################################
$# LOAD CASE: FFZFM06FAC          
$# MSC.NASTRAN SUBCASE: 210080
$# SUBTITLE:  FZF0OB             
$#########################################################
$
$ INTACT
SUBCASE= 210080
SUBTITLE=  FZF0OBINTACT
LOAD=9021008
SPC=512
MPC=92100800
K2GG=KAAX
$
SUBCASE= 210081
SUBTITLE=  FZF0OBFAILSAFE 01
LOAD=9021008
SPC=512
MPC=92100801
K2GG=KAAX
$
SUBCASE= 210082
SUBTITLE=  FZF0OBFAILSAFE 02
LOAD=9021008
SPC=512
MPC=92100802
K2GG=KAAX
$
SUBCASE= 210083
SUBTITLE=  FZF0OBFAILSAFE 03
LOAD=9021008
SPC=512
MPC=92100803
K2GG=KAAX
$
SUBCASE= 210084
SUBTITLE=  FZF0OBFAILSAFE 04
LOAD=9021008
SPC=512
MPC=92100804
K2GG=KAAX
$
SUBCASE= 210085
SUBTITLE=  FZF0OBFAILSAFE 05
LOAD=9021008
SPC=512
MPC=92100805
K2GG=KAAX
$
SUBCASE= 210086
SUBTITLE=  FZF0OBFAILSAFE 06
LOAD=9021008
SPC=512
MPC=92100806
K2GG=KAAX
$
SUBCASE= 210087
SUBTITLE=  FZF0OBFAILSAFE 07
LOAD=9021008
SPC=512
MPC=92100807
K2GG=KAAX
$
SUBCASE= 210088
SUBTITLE=  FZF0OBFAILSAFE 08
LOAD=9021008
SPC=512
MPC=92100808
K2GG=KAAX
$
SUBCASE= 210089
SUBTITLE=  FZF0OBFAILSAFE 09
LOAD=9021008
SPC=512
MPC=92100809
K2GG=KAAX
$
$
