$#########################################################
$# LOAD CASE: FFFTM070A3          
$# MSC.NASTRAN SUBCASE: 2100100
$# SUBTITLE: FFT0D2              
$#########################################################
$
$ INTACT
SUBCASE= 2100100
SUBTITLE= FFT0D2 INTACT
LOAD=9021001
SPC=512
MPC=92100100
K2GG=KAAX
$
SUBCASE= 2100110
SUBTITLE= FFT0D2 FAILSAFE 01
LOAD=9021001
SPC=512
MPC=92100101
K2GG=KAAX
$
SUBCASE= 2100120
SUBTITLE= FFT0D2 FAILSAFE 02
LOAD=9021001
SPC=512
MPC=92100102
K2GG=KAAX
$
SUBCASE= 2100130
SUBTITLE= FFT0D2 FAILSAFE 03
LOAD=9021001
SPC=512
MPC=92100103
K2GG=KAAX
$
SUBCASE= 2100140
SUBTITLE= FFT0D2 FAILSAFE 04
LOAD=9021001
SPC=512
MPC=92100104
K2GG=KAAX
$
SUBCASE= 2100150
SUBTITLE= FFT0D2 FAILSAFE 05
LOAD=9021001
SPC=512
MPC=92100105
K2GG=KAAX
$
SUBCASE= 2100160
SUBTITLE= FFT0D2 FAILSAFE 06
LOAD=9021001
SPC=512
MPC=92100106
K2GG=KAAX
$
SUBCASE= 2100170
SUBTITLE= FFT0D2 FAILSAFE 07
LOAD=9021001
SPC=512
MPC=92100107
K2GG=KAAX
$
SUBCASE= 2100180
SUBTITLE= FFT0D2 FAILSAFE 08
LOAD=9021001
SPC=512
MPC=92100108
K2GG=KAAX
$
SUBCASE= 2100190
SUBTITLE= FFT0D2 FAILSAFE 09
LOAD=9021001
SPC=512
MPC=92100109
K2GG=KAAX
$
$
$#########################################################
$# LOAD CASE: FFLDM39028          
$# MSC.NASTRAN SUBCASE: 2100200
$# SUBTITLE: FLD0DC              
$#########################################################
$
$ INTACT
SUBCASE= 2100200
SUBTITLE= FLD0DC INTACT
LOAD=9021002
SPC=512
MPC=92100200
K2GG=KAAX
$
SUBCASE= 2100210
SUBTITLE= FLD0DC FAILSAFE 01
LOAD=9021002
SPC=512
MPC=92100201
K2GG=KAAX
$
SUBCASE= 2100220
SUBTITLE= FLD0DC FAILSAFE 02
LOAD=9021002
SPC=512
MPC=92100202
K2GG=KAAX
$
SUBCASE= 2100230
SUBTITLE= FLD0DC FAILSAFE 03
LOAD=9021002
SPC=512
MPC=92100203
K2GG=KAAX
$
SUBCASE= 2100240
SUBTITLE= FLD0DC FAILSAFE 04
LOAD=9021002
SPC=512
MPC=92100204
K2GG=KAAX
$
SUBCASE= 2100250
SUBTITLE= FLD0DC FAILSAFE 05
LOAD=9021002
SPC=512
MPC=92100205
K2GG=KAAX
$
SUBCASE= 2100260
SUBTITLE= FLD0DC FAILSAFE 06
LOAD=9021002
SPC=512
MPC=92100206
K2GG=KAAX
$
SUBCASE= 2100270
SUBTITLE= FLD0DC FAILSAFE 07
LOAD=9021002
SPC=512
MPC=92100207
K2GG=KAAX
$
SUBCASE= 2100280
SUBTITLE= FLD0DC FAILSAFE 08
LOAD=9021002
SPC=512
MPC=92100208
K2GG=KAAX
$
SUBCASE= 2100290
SUBTITLE= FLD0DC FAILSAFE 09
LOAD=9021002
SPC=512
MPC=92100209
K2GG=KAAX
$
$
$#########################################################
$# LOAD CASE: FFLZM3904T          
$# MSC.NASTRAN SUBCASE: 2100300
$# SUBTITLE: FLZ0EH              
$#########################################################
$
$ INTACT
SUBCASE= 2100300
SUBTITLE= FLZ0EH INTACT
LOAD=9021003
SPC=512
MPC=92100300
K2GG=KAAX
$
SUBCASE= 2100310
SUBTITLE= FLZ0EH FAILSAFE 01
LOAD=9021003
SPC=512
MPC=92100301
K2GG=KAAX
$
SUBCASE= 2100320
SUBTITLE= FLZ0EH FAILSAFE 02
LOAD=9021003
SPC=512
MPC=92100302
K2GG=KAAX
$
SUBCASE= 2100330
SUBTITLE= FLZ0EH FAILSAFE 03
LOAD=9021003
SPC=512
MPC=92100303
K2GG=KAAX
$
SUBCASE= 2100340
SUBTITLE= FLZ0EH FAILSAFE 04
LOAD=9021003
SPC=512
MPC=92100304
K2GG=KAAX
$
SUBCASE= 2100350
SUBTITLE= FLZ0EH FAILSAFE 05
LOAD=9021003
SPC=512
MPC=92100305
K2GG=KAAX
$
SUBCASE= 2100360
SUBTITLE= FLZ0EH FAILSAFE 06
LOAD=9021003
SPC=512
MPC=92100306
K2GG=KAAX
$
SUBCASE= 2100370
SUBTITLE= FLZ0EH FAILSAFE 07
LOAD=9021003
SPC=512
MPC=92100307
K2GG=KAAX
$
SUBCASE= 2100380
SUBTITLE= FLZ0EH FAILSAFE 08
LOAD=9021003
SPC=512
MPC=92100308
K2GG=KAAX
$
SUBCASE= 2100390
SUBTITLE= FLZ0EH FAILSAFE 09
LOAD=9021003
SPC=512
MPC=92100309
K2GG=KAAX
$
$
$#########################################################
$# LOAD CASE: FFRAM12007          
$# MSC.NASTRAN SUBCASE: 2100400
$# SUBTITLE: FRA0EX              
$#########################################################
$
$ INTACT
SUBCASE= 2100400
SUBTITLE= FRA0EX INTACT
LOAD=9021004
SPC=512
MPC=92100400
K2GG=KAAX
$
SUBCASE= 2100410
SUBTITLE= FRA0EX FAILSAFE 01
LOAD=9021004
SPC=512
MPC=92100401
K2GG=KAAX
$
SUBCASE= 2100420
SUBTITLE= FRA0EX FAILSAFE 02
LOAD=9021004
SPC=512
MPC=92100402
K2GG=KAAX
$
SUBCASE= 2100430
SUBTITLE= FRA0EX FAILSAFE 03
LOAD=9021004
SPC=512
MPC=92100403
K2GG=KAAX
$
SUBCASE= 2100440
SUBTITLE= FRA0EX FAILSAFE 04
LOAD=9021004
SPC=512
MPC=92100404
K2GG=KAAX
$
SUBCASE= 2100450
SUBTITLE= FRA0EX FAILSAFE 05
LOAD=9021004
SPC=512
MPC=92100405
K2GG=KAAX
$
SUBCASE= 2100460
SUBTITLE= FRA0EX FAILSAFE 06
LOAD=9021004
SPC=512
MPC=92100406
K2GG=KAAX
$
SUBCASE= 2100470
SUBTITLE= FRA0EX FAILSAFE 07
LOAD=9021004
SPC=512
MPC=92100407
K2GG=KAAX
$
SUBCASE= 2100480
SUBTITLE= FRA0EX FAILSAFE 08
LOAD=9021004
SPC=512
MPC=92100408
K2GG=KAAX
$
SUBCASE= 2100490
SUBTITLE= FRA0EX FAILSAFE 09
LOAD=9021004
SPC=512
MPC=92100409
K2GG=KAAX
$
$
$#########################################################
$# LOAD CASE: FFROM10003          
$# MSC.NASTRAN SUBCASE: 2100500
$# SUBTITLE: FRO0K7              
$#########################################################
$
$ INTACT
SUBCASE= 2100500
SUBTITLE= FRO0K7 INTACT
LOAD=9021005
SPC=512
MPC=92100500
K2GG=KAAX
$
SUBCASE= 2100510
SUBTITLE= FRO0K7 FAILSAFE 01
LOAD=9021005
SPC=512
MPC=92100501
K2GG=KAAX
$
SUBCASE= 2100520
SUBTITLE= FRO0K7 FAILSAFE 02
LOAD=9021005
SPC=512
MPC=92100502
K2GG=KAAX
$
SUBCASE= 2100530
SUBTITLE= FRO0K7 FAILSAFE 03
LOAD=9021005
SPC=512
MPC=92100503
K2GG=KAAX
$
SUBCASE= 2100540
SUBTITLE= FRO0K7 FAILSAFE 04
LOAD=9021005
SPC=512
MPC=92100504
K2GG=KAAX
$
SUBCASE= 2100550
SUBTITLE= FRO0K7 FAILSAFE 05
LOAD=9021005
SPC=512
MPC=92100505
K2GG=KAAX
$
SUBCASE= 2100560
SUBTITLE= FRO0K7 FAILSAFE 06
LOAD=9021005
SPC=512
MPC=92100506
K2GG=KAAX
$
SUBCASE= 2100570
SUBTITLE= FRO0K7 FAILSAFE 07
LOAD=9021005
SPC=512
MPC=92100507
K2GG=KAAX
$
SUBCASE= 2100580
SUBTITLE= FRO0K7 FAILSAFE 08
LOAD=9021005
SPC=512
MPC=92100508
K2GG=KAAX
$
SUBCASE= 2100590
SUBTITLE= FRO0K7 FAILSAFE 09
LOAD=9021005
SPC=512
MPC=92100509
K2GG=KAAX
$
$
$#########################################################
$# LOAD CASE: FFZ1M20FAC          
$# MSC.NASTRAN SUBCASE: 2100600
$# SUBTITLE: FZ10KJ              
$#########################################################
$
$ INTACT
SUBCASE= 2100600
SUBTITLE= FZ10KJ INTACT
LOAD=9021006
SPC=512
MPC=92100600
K2GG=KAAX
$
SUBCASE= 2100610
SUBTITLE= FZ10KJ FAILSAFE 01
LOAD=9021006
SPC=512
MPC=92100601
K2GG=KAAX
$
SUBCASE= 2100620
SUBTITLE= FZ10KJ FAILSAFE 02
LOAD=9021006
SPC=512
MPC=92100602
K2GG=KAAX
$
SUBCASE= 2100630
SUBTITLE= FZ10KJ FAILSAFE 03
LOAD=9021006
SPC=512
MPC=92100603
K2GG=KAAX
$
SUBCASE= 2100640
SUBTITLE= FZ10KJ FAILSAFE 04
LOAD=9021006
SPC=512
MPC=92100604
K2GG=KAAX
$
SUBCASE= 2100650
SUBTITLE= FZ10KJ FAILSAFE 05
LOAD=9021006
SPC=512
MPC=92100605
K2GG=KAAX
$
SUBCASE= 2100660
SUBTITLE= FZ10KJ FAILSAFE 06
LOAD=9021006
SPC=512
MPC=92100606
K2GG=KAAX
$
SUBCASE= 2100670
SUBTITLE= FZ10KJ FAILSAFE 07
LOAD=9021006
SPC=512
MPC=92100607
K2GG=KAAX
$
SUBCASE= 2100680
SUBTITLE= FZ10KJ FAILSAFE 08
LOAD=9021006
SPC=512
MPC=92100608
K2GG=KAAX
$
SUBCASE= 2100690
SUBTITLE= FZ10KJ FAILSAFE 09
LOAD=9021006
SPC=512
MPC=92100609
K2GG=KAAX
$
$
$#########################################################
$# LOAD CASE: FFZ3M20FAC          
$# MSC.NASTRAN SUBCASE: 2100700
$# SUBTITLE: FZ30MF              
$#########################################################
$
$ INTACT
SUBCASE= 2100700
SUBTITLE= FZ30MF INTACT
LOAD=9021007
SPC=512
MPC=92100700
K2GG=KAAX
$
SUBCASE= 2100710
SUBTITLE= FZ30MF FAILSAFE 01
LOAD=9021007
SPC=512
MPC=92100701
K2GG=KAAX
$
SUBCASE= 2100720
SUBTITLE= FZ30MF FAILSAFE 02
LOAD=9021007
SPC=512
MPC=92100702
K2GG=KAAX
$
SUBCASE= 2100730
SUBTITLE= FZ30MF FAILSAFE 03
LOAD=9021007
SPC=512
MPC=92100703
K2GG=KAAX
$
SUBCASE= 2100740
SUBTITLE= FZ30MF FAILSAFE 04
LOAD=9021007
SPC=512
MPC=92100704
K2GG=KAAX
$
SUBCASE= 2100750
SUBTITLE= FZ30MF FAILSAFE 05
LOAD=9021007
SPC=512
MPC=92100705
K2GG=KAAX
$
SUBCASE= 2100760
SUBTITLE= FZ30MF FAILSAFE 06
LOAD=9021007
SPC=512
MPC=92100706
K2GG=KAAX
$
SUBCASE= 2100770
SUBTITLE= FZ30MF FAILSAFE 07
LOAD=9021007
SPC=512
MPC=92100707
K2GG=KAAX
$
SUBCASE= 2100780
SUBTITLE= FZ30MF FAILSAFE 08
LOAD=9021007
SPC=512
MPC=92100708
K2GG=KAAX
$
SUBCASE= 2100790
SUBTITLE= FZ30MF FAILSAFE 09
LOAD=9021007
SPC=512
MPC=92100709
K2GG=KAAX
$
$
$#########################################################
$# LOAD CASE: FFZFM06FAC          
$# MSC.NASTRAN SUBCASE: 2100800
$# SUBTITLE: FZF0OB              
$#########################################################
$
$ INTACT
SUBCASE= 2100800
SUBTITLE= FZF0OB INTACT
LOAD=9021008
SPC=512
MPC=92100800
K2GG=KAAX
$
SUBCASE= 2100810
SUBTITLE= FZF0OB FAILSAFE 01
LOAD=9021008
SPC=512
MPC=92100801
K2GG=KAAX
$
SUBCASE= 2100820
SUBTITLE= FZF0OB FAILSAFE 02
LOAD=9021008
SPC=512
MPC=92100802
K2GG=KAAX
$
SUBCASE= 2100830
SUBTITLE= FZF0OB FAILSAFE 03
LOAD=9021008
SPC=512
MPC=92100803
K2GG=KAAX
$
SUBCASE= 2100840
SUBTITLE= FZF0OB FAILSAFE 04
LOAD=9021008
SPC=512
MPC=92100804
K2GG=KAAX
$
SUBCASE= 2100850
SUBTITLE= FZF0OB FAILSAFE 05
LOAD=9021008
SPC=512
MPC=92100805
K2GG=KAAX
$
SUBCASE= 2100860
SUBTITLE= FZF0OB FAILSAFE 06
LOAD=9021008
SPC=512
MPC=92100806
K2GG=KAAX
$
SUBCASE= 2100870
SUBTITLE= FZF0OB FAILSAFE 07
LOAD=9021008
SPC=512
MPC=92100807
K2GG=KAAX
$
SUBCASE= 2100880
SUBTITLE= FZF0OB FAILSAFE 08
LOAD=9021008
SPC=512
MPC=92100808
K2GG=KAAX
$
SUBCASE= 2100890
SUBTITLE= FZF0OB FAILSAFE 09
LOAD=9021008
SPC=512
MPC=92100809
K2GG=KAAX
$
$
