$##########################################################################################
$# LOAD CASE: FFFTM070A3          
$# MSC.NASTRAN SUBCASE: 210010
$# SUBTITLE:  FFT0D2             
$##########################################################################################
$
$ ------- ________ -------- ________ -------- ________ -------- ________ -------- 
$
$ HTP
$
$ ------- ________ -------- ________ -------- ________ -------- ________ -------- 
$
$ HTP ELEV RIGHT
$
FORCE   1021001 50420001    5706  10.000    0.00    0.00   -0.00
FORCE   1021001 50420002    5706  10.000    0.00    0.00   -0.00
FORCE   1021001 50420003    5706  10.000    0.00    0.00   -0.00
FORCE   1021001 50420004    5706  10.000    0.00    0.00   -0.00
FORCE   1021001 50420005    5706  10.000    0.00    0.00   -0.00
FORCE   1021001 50420006    5706  10.000    0.00    0.00   -0.00
FORCE   1021001 50420007    5706  10.000    0.00    0.00   -0.00
FORCE   1021001 50420008    5706  10.000    0.00    0.00   -0.00
FORCE   1021001 50420009    5706  10.000    0.00    0.00   -0.00
$
$ HTP ELEV LEFT
$
FORCE   1021001 55420001    5806  10.000    0.00    0.00   -0.00
FORCE   1021001 55420002    5806  10.000    0.00    0.00   -0.00
FORCE   1021001 55420003    5806  10.000    0.00    0.00   -0.00
FORCE   1021001 55420004    5806  10.000    0.00    0.00   -0.00
FORCE   1021001 55420005    5806  10.000    0.00    0.00   -0.00
FORCE   1021001 55420006    5806  10.000    0.00    0.00   -0.00
FORCE   1021001 55420007    5806  10.000    0.00    0.00   -0.00
FORCE   1021001 55420008    5806  10.000    0.00    0.00   -0.00
FORCE   1021001 55420009    5806  10.000    0.00    0.00   -0.00
$
$ HTP BOX RIGHT
$
FORCE   2021001  5000010    5425  10.000  29.581    0.00    0.00
FORCE   2021001  5000010    5425  10.000    0.00   4.402    0.00
FORCE   2021001  5000010    5425  10.000    0.00    0.00-344.460
MOMENT  2021001  5000010    5425 10000.0 -90.139    0.00    0.00
MOMENT  2021001  5000010    5425 10000.0    0.00   9.179    0.00
MOMENT  2021001  5000010    5425 10000.0    0.00    0.00  -6.676
FORCE   2021001  5000020    5425  10.000 151.641    0.00    0.00
FORCE   2021001  5000020    5425  10.000    0.00 213.579    0.00
FORCE   2021001  5000020    5425  10.000    0.00    0.00********
MOMENT  2021001  5000020    5425 10000.0********    0.00    0.00
MOMENT  2021001  5000020    5425 10000.0    0.009044.231    0.00
MOMENT  2021001  5000020    5425 10000.0    0.00    0.00 265.391
FORCE   2021001  5000030    5425  10.000   0.000    0.00    0.00
FORCE   2021001  5000030    5425  10.000    0.00   0.000    0.00
FORCE   2021001  5000030    5425  10.000    0.00    0.00   0.000
MOMENT  2021001  5000030    5425 10000.0   0.000    0.00    0.00
MOMENT  2021001  5000030    5425 10000.0    0.00   0.000    0.00
MOMENT  2021001  5000030    5425 10000.0    0.00    0.00   0.000
FORCE   2021001  5000040    5435  10.000  -0.885    0.00    0.00
FORCE   2021001  5000040    5435  10.000    0.00  94.462    0.00
FORCE   2021001  5000040    5435  10.000    0.00    0.003583.990
MOMENT  2021001  5000040    5435 10000.0********    0.00    0.00
MOMENT  2021001  5000040    5435 10000.0    0.00-939.049    0.00
MOMENT  2021001  5000040    5435 10000.0    0.00    0.00-253.772
FORCE   2021001  5000050    5435  10.000  23.328    0.00    0.00
FORCE   2021001  5000050    5435  10.000    0.00 -26.039    0.00
FORCE   2021001  5000050    5435  10.000    0.00    0.00-484.352
MOMENT  2021001  5000050    5435 10000.0-256.154    0.00    0.00
MOMENT  2021001  5000050    5435 10000.0    0.00  79.642    0.00
MOMENT  2021001  5000050    5435 10000.0    0.00    0.00 -11.652
FORCE   2021001  5000060    5435  10.000   14.79    0.00    0.00
FORCE   2021001  5000060    5435  10.000    0.00  -22.35    0.00
FORCE   2021001  5000060    5435  10.000    0.00    0.00 -579.86
MOMENT  2021001  5000060    5435 10000.0 -574.12    0.00    0.00
MOMENT  2021001  5000060    5435 10000.0    0.00  317.91    0.00
MOMENT  2021001  5000060    5435 10000.0    0.00    0.00  -18.71
FORCE   2021001  5000070    5435  10.000    4.78    0.00    0.00
FORCE   2021001  5000070    5435  10.000    0.00  -12.87    0.00
FORCE   2021001  5000070    5435  10.000    0.00    0.00 -451.49
MOMENT  2021001  5000070    5435 10000.0 -385.59    0.00    0.00
MOMENT  2021001  5000070    5435 10000.0    0.00  169.72    0.00
MOMENT  2021001  5000070    5435 10000.0    0.00    0.00   -3.65
FORCE   2021001  5000080    5435  10.000   -4.04    0.00    0.00
FORCE   2021001  5000080    5435  10.000    0.00  -13.42    0.00
FORCE   2021001  5000080    5435  10.000    0.00    0.00 -610.93
MOMENT  2021001  5000080    5435 10000.0 -640.03    0.00    0.00
MOMENT  2021001  5000080    5435 10000.0    0.00  165.26    0.00
MOMENT  2021001  5000080    5435 10000.0    0.00    0.00    6.81
FORCE   2021001  5000090    5435  10.000   -9.58    0.00    0.00
FORCE   2021001  5000090    5435  10.000    0.00   -8.50    0.00
FORCE   2021001  5000090    5435  10.000    0.00    0.00 -493.64
MOMENT  2021001  5000090    5435 10000.0 -393.31    0.00    0.00
MOMENT  2021001  5000090    5435 10000.0    0.00   91.67    0.00
MOMENT  2021001  5000090    5435 10000.0    0.00    0.00    9.08
FORCE   2021001  5000100    5435  10.000  -15.77    0.00    0.00
FORCE   2021001  5000100    5435  10.000    0.00   -7.57    0.00
FORCE   2021001  5000100    5435  10.000    0.00    0.00 -575.97
MOMENT  2021001  5000100    5435 10000.0 -428.97    0.00    0.00
MOMENT  2021001  5000100    5435 10000.0    0.00   75.99    0.00
MOMENT  2021001  5000100    5435 10000.0    0.00    0.00   13.08
FORCE   2021001  5000110    5435  10.000 -10.572    0.00    0.00
FORCE   2021001  5000110    5435  10.000    0.00  -2.688    0.00
FORCE   2021001  5000110    5435  10.000    0.00    0.00-334.695
MOMENT  2021001  5000110    5435 10000.0-132.132    0.00    0.00
MOMENT  2021001  5000110    5435 10000.0    0.00  15.225    0.00
MOMENT  2021001  5000110    5435 10000.0    0.00    0.00   4.280
FORCE   2021001  5000120    5435  10.000  -2.035    0.00    0.00
FORCE   2021001  5000120    5435  10.000    0.00  -1.027    0.00
FORCE   2021001  5000120    5435  10.000    0.00    0.00 -53.045
MOMENT  2021001  5000120    5435 10000.0 -23.795    0.00    0.00
MOMENT  2021001  5000120    5435 10000.0    0.00  23.628    0.00
MOMENT  2021001  5000120    5435 10000.0    0.00    0.00   0.523
$
$ HTP BOX LEFT
$
FORCE   2021001  5500010    5525  10.000 -31.210    0.00    0.00
FORCE   2021001  5500010    5525  10.000    0.00  -6.950    0.00
FORCE   2021001  5500010    5525  10.000    0.00    0.00-343.666
MOMENT  2021001  5500010    5525 10000.0 -91.424    0.00    0.00
MOMENT  2021001  5500010    5525 10000.0    0.00  -8.950    0.00
MOMENT  2021001  5500010    5525 10000.0    0.00    0.00   9.148
FORCE   2021001  5500020    5525  10.000-298.325    0.00    0.00
FORCE   2021001  5500020    5525  10.000    0.00  73.611    0.00
FORCE   2021001  5500020    5525  10.000    0.00    0.00********
MOMENT  2021001  5500020    5525 10000.0********    0.00    0.00
MOMENT  2021001  5500020    5525 10000.0    0.00********    0.00
MOMENT  2021001  5500020    5525 10000.0    0.00    0.00 709.602
FORCE   2021001  5500030    5525  10.000   0.000    0.00    0.00
FORCE   2021001  5500030    5525  10.000    0.00   0.000    0.00
FORCE   2021001  5500030    5525  10.000    0.00    0.00   0.000
MOMENT  2021001  5500030    5525 10000.0   0.000    0.00    0.00
MOMENT  2021001  5500030    5525 10000.0    0.00   0.000    0.00
MOMENT  2021001  5500030    5525 10000.0    0.00    0.00   0.000
FORCE   2021001  5500040    5535  10.000 180.008    0.00    0.00
FORCE   2021001  5500040    5535  10.000    0.00 129.322    0.00
FORCE   2021001  5500040    5535  10.000    0.00    0.003503.914
MOMENT  2021001  5500040    5535 10000.0********    0.00    0.00
MOMENT  2021001  5500040    5535 10000.0    0.00 905.007    0.00
MOMENT  2021001  5500040    5535 10000.0    0.00    0.00-635.555
FORCE   2021001  5500050    5535  10.000 -43.397    0.00    0.00
FORCE   2021001  5500050    5535  10.000    0.00 -33.827    0.00
FORCE   2021001  5500050    5535  10.000    0.00    0.00-476.743
MOMENT  2021001  5500050    5535 10000.0-253.618    0.00    0.00
MOMENT  2021001  5500050    5535 10000.0    0.00 -75.439    0.00
MOMENT  2021001  5500050    5535 10000.0    0.00    0.00  28.788
FORCE   2021001  5500060    5535  10.000  -44.50    0.00    0.00
FORCE   2021001  5500060    5535  10.000    0.00  -32.30    0.00
FORCE   2021001  5500060    5535  10.000    0.00    0.00 -567.98
MOMENT  2021001  5500060    5535 10000.0 -564.03    0.00    0.00
MOMENT  2021001  5500060    5535 10000.0    0.00 -308.02    0.00
MOMENT  2021001  5500060    5535 10000.0    0.00    0.00   58.74
FORCE   2021001  5500070    5535  10.000  -29.64    0.00    0.00
FORCE   2021001  5500070    5535  10.000    0.00  -18.35    0.00
FORCE   2021001  5500070    5535  10.000    0.00    0.00 -440.82
MOMENT  2021001  5500070    5535 10000.0 -377.27    0.00    0.00
MOMENT  2021001  5500070    5535 10000.0    0.00 -163.75    0.00
MOMENT  2021001  5500070    5535 10000.0    0.00    0.00   29.64
FORCE   2021001  5500080    5535  10.000  -29.14    0.00    0.00
FORCE   2021001  5500080    5535  10.000    0.00  -18.37    0.00
FORCE   2021001  5500080    5535  10.000    0.00    0.00 -595.81
MOMENT  2021001  5500080    5535 10000.0 -624.95    0.00    0.00
MOMENT  2021001  5500080    5535 10000.0    0.00 -159.07    0.00
MOMENT  2021001  5500080    5535 10000.0    0.00    0.00   30.92
FORCE   2021001  5500090    5535  10.000  -15.75    0.00    0.00
FORCE   2021001  5500090    5535  10.000    0.00  -11.27    0.00
FORCE   2021001  5500090    5535  10.000    0.00    0.00 -481.57
MOMENT  2021001  5500090    5535 10000.0 -384.17    0.00    0.00
MOMENT  2021001  5500090    5535 10000.0    0.00  -87.95    0.00
MOMENT  2021001  5500090    5535 10000.0    0.00    0.00   12.27
FORCE   2021001  5500100    5535  10.000  -12.13    0.00    0.00
FORCE   2021001  5500100    5535  10.000    0.00  -10.06    0.00
FORCE   2021001  5500100    5535  10.000    0.00    0.00 -562.25
MOMENT  2021001  5500100    5535 10000.0 -419.11    0.00    0.00
MOMENT  2021001  5500100    5535 10000.0    0.00  -72.78    0.00
MOMENT  2021001  5500100    5535 10000.0    0.00    0.00    8.45
FORCE   2021001  5500110    5535  10.000  -5.124    0.00    0.00
FORCE   2021001  5500110    5535  10.000    0.00  -3.888    0.00
FORCE   2021001  5500110    5535  10.000    0.00    0.00-326.903
MOMENT  2021001  5500110    5535 10000.0-129.156    0.00    0.00
MOMENT  2021001  5500110    5535 10000.0    0.00 -15.234    0.00
MOMENT  2021001  5500110    5535 10000.0    0.00    0.00   2.142
FORCE   2021001  5500120    5535  10.000  -0.324    0.00    0.00
FORCE   2021001  5500120    5535  10.000    0.00  -1.261    0.00
FORCE   2021001  5500120    5535  10.000    0.00    0.00 -51.850
MOMENT  2021001  5500120    5535 10000.0 -23.305    0.00    0.00
MOMENT  2021001  5500120    5535 10000.0    0.00 -22.771    0.00
MOMENT  2021001  5500120    5535 10000.0    0.00    0.00   0.664
$
$
$##########################################################################################
$# LOAD CASE: FFLDM39028          
$# MSC.NASTRAN SUBCASE: 210020
$# SUBTITLE:  FLD0DC             
$##########################################################################################
$
$ ------- ________ -------- ________ -------- ________ -------- ________ -------- 
$
$ HTP
$
$ ------- ________ -------- ________ -------- ________ -------- ________ -------- 
$
$ HTP ELEV RIGHT
$
FORCE   1021002 50420001    5706  10.000    0.00    0.00  -17.04
FORCE   1021002 50420002    5706  10.000    0.00    0.00   -4.14
FORCE   1021002 50420003    5706  10.000    0.00    0.00   -8.14
FORCE   1021002 50420004    5706  10.000    0.00    0.00   -4.08
FORCE   1021002 50420005    5706  10.000    0.00    0.00  -19.74
FORCE   1021002 50420006    5706  10.000    0.00    0.00  -21.33
FORCE   1021002 50420007    5706  10.000    0.00    0.00  -17.74
FORCE   1021002 50420008    5706  10.000    0.00    0.00   -9.44
FORCE   1021002 50420009    5706  10.000    0.00    0.00   -6.47
$
$ HTP ELEV LEFT
$
FORCE   1021002 55420001    5806  10.000    0.00    0.00  -17.04
FORCE   1021002 55420002    5806  10.000    0.00    0.00   -4.14
FORCE   1021002 55420003    5806  10.000    0.00    0.00   -8.14
FORCE   1021002 55420004    5806  10.000    0.00    0.00   -4.08
FORCE   1021002 55420005    5806  10.000    0.00    0.00  -19.74
FORCE   1021002 55420006    5806  10.000    0.00    0.00  -21.33
FORCE   1021002 55420007    5806  10.000    0.00    0.00  -17.74
FORCE   1021002 55420008    5806  10.000    0.00    0.00   -9.44
FORCE   1021002 55420009    5806  10.000    0.00    0.00   -6.47
$
$ HTP BOX RIGHT
$
FORCE   2021002  5000010    5425  10.000   0.838    0.00    0.00
FORCE   2021002  5000010    5425  10.000    0.00   3.758    0.00
FORCE   2021002  5000010    5425  10.000    0.00    0.00 -67.000
MOMENT  2021002  5000010    5425 10000.0 -15.916    0.00    0.00
MOMENT  2021002  5000010    5425 10000.0    0.00  -4.518    0.00
MOMENT  2021002  5000010    5425 10000.0    0.00    0.00  -0.790
FORCE   2021002  5000020    5425  10.000-309.948    0.00    0.00
FORCE   2021002  5000020    5425  10.000    0.00 383.887    0.00
FORCE   2021002  5000020    5425  10.000    0.00    0.00********
MOMENT  2021002  5000020    5425 10000.0********    0.00    0.00
MOMENT  2021002  5000020    5425 10000.0    0.008368.685    0.00
MOMENT  2021002  5000020    5425 10000.0    0.00    0.001938.468
FORCE   2021002  5000030    5425  10.000   0.000    0.00    0.00
FORCE   2021002  5000030    5425  10.000    0.00   0.000    0.00
FORCE   2021002  5000030    5425  10.000    0.00    0.00   0.000
MOMENT  2021002  5000030    5425 10000.0   0.000    0.00    0.00
MOMENT  2021002  5000030    5425 10000.0    0.00  -0.011    0.00
MOMENT  2021002  5000030    5425 10000.0    0.00    0.00  -0.001
FORCE   2021002  5000040    5435  10.000 450.757    0.00    0.00
FORCE   2021002  5000040    5435  10.000    0.00 198.168    0.00
FORCE   2021002  5000040    5435  10.000    0.00    0.004139.544
MOMENT  2021002  5000040    5435 10000.0********    0.00    0.00
MOMENT  2021002  5000040    5435 10000.0    0.00 411.436    0.00
MOMENT  2021002  5000040    5435 10000.0    0.00    0.00********
FORCE   2021002  5000050    5435  10.000 -48.706    0.00    0.00
FORCE   2021002  5000050    5435  10.000    0.00 -23.366    0.00
FORCE   2021002  5000050    5435  10.000    0.00    0.00-378.703
MOMENT  2021002  5000050    5435 10000.0-137.786    0.00    0.00
MOMENT  2021002  5000050    5435 10000.0    0.00 -92.998    0.00
MOMENT  2021002  5000050    5435 10000.0    0.00    0.00  17.763
FORCE   2021002  5000060    5435  10.000  -84.71    0.00    0.00
FORCE   2021002  5000060    5435  10.000    0.00  -41.67    0.00
FORCE   2021002  5000060    5435  10.000    0.00    0.00 -682.02
MOMENT  2021002  5000060    5435 10000.0 -425.78    0.00    0.00
MOMENT  2021002  5000060    5435 10000.0    0.00  -84.91    0.00
MOMENT  2021002  5000060    5435 10000.0    0.00    0.00   44.10
FORCE   2021002  5000070    5435  10.000  -85.32    0.00    0.00
FORCE   2021002  5000070    5435  10.000    0.00  -39.42    0.00
FORCE   2021002  5000070    5435  10.000    0.00    0.00 -669.76
MOMENT  2021002  5000070    5435 10000.0 -395.69    0.00    0.00
MOMENT  2021002  5000070    5435 10000.0    0.00 -124.41    0.00
MOMENT  2021002  5000070    5435 10000.0    0.00    0.00   51.40
FORCE   2021002  5000080    5435  10.000  -97.31    0.00    0.00
FORCE   2021002  5000080    5435  10.000    0.00  -42.89    0.00
FORCE   2021002  5000080    5435  10.000    0.00    0.00 -842.60
MOMENT  2021002  5000080    5435 10000.0 -671.36    0.00    0.00
MOMENT  2021002  5000080    5435 10000.0    0.00 -139.22    0.00
MOMENT  2021002  5000080    5435 10000.0    0.00    0.00   76.69
FORCE   2021002  5000090    5435  10.000  -58.77    0.00    0.00
FORCE   2021002  5000090    5435  10.000    0.00  -24.80    0.00
FORCE   2021002  5000090    5435  10.000    0.00    0.00 -596.33
MOMENT  2021002  5000090    5435 10000.0 -358.03    0.00    0.00
MOMENT  2021002  5000090    5435 10000.0    0.00  -89.75    0.00
MOMENT  2021002  5000090    5435 10000.0    0.00    0.00   34.82
FORCE   2021002  5000100    5435  10.000  -39.87    0.00    0.00
FORCE   2021002  5000100    5435  10.000    0.00  -16.77    0.00
FORCE   2021002  5000100    5435  10.000    0.00    0.00 -521.05
MOMENT  2021002  5000100    5435 10000.0 -315.99    0.00    0.00
MOMENT  2021002  5000100    5435 10000.0    0.00  -49.31    0.00
MOMENT  2021002  5000100    5435 10000.0    0.00    0.00   22.57
FORCE   2021002  5000110    5435  10.000 -17.472    0.00    0.00
FORCE   2021002  5000110    5435  10.000    0.00  -6.642    0.00
FORCE   2021002  5000110    5435  10.000    0.00    0.00-275.529
MOMENT  2021002  5000110    5435 10000.0-110.555    0.00    0.00
MOMENT  2021002  5000110    5435 10000.0    0.00  -5.496    0.00
MOMENT  2021002  5000110    5435 10000.0    0.00    0.00   7.177
FORCE   2021002  5000120    5435  10.000  -4.614    0.00    0.00
FORCE   2021002  5000120    5435  10.000    0.00  -1.518    0.00
FORCE   2021002  5000120    5435  10.000    0.00    0.00 -66.346
MOMENT  2021002  5000120    5435 10000.0 -24.319    0.00    0.00
MOMENT  2021002  5000120    5435 10000.0    0.00  20.488    0.00
MOMENT  2021002  5000120    5435 10000.0    0.00    0.00   1.092
$
$ HTP BOX LEFT
$
FORCE   2021002  5500010    5525  10.000  -0.555    0.00    0.00
FORCE   2021002  5500010    5525  10.000    0.00  -3.896    0.00
FORCE   2021002  5500010    5525  10.000    0.00    0.00 -66.270
MOMENT  2021002  5500010    5525 10000.0 -16.169    0.00    0.00
MOMENT  2021002  5500010    5525 10000.0    0.00   4.490    0.00
MOMENT  2021002  5500010    5525 10000.0    0.00    0.00  -0.454
FORCE   2021002  5500020    5525  10.000 387.929    0.00    0.00
FORCE   2021002  5500020    5525  10.000    0.00 327.660    0.00
FORCE   2021002  5500020    5525  10.000    0.00    0.00********
MOMENT  2021002  5500020    5525 10000.0********    0.00    0.00
MOMENT  2021002  5500020    5525 10000.0    0.00********    0.00
MOMENT  2021002  5500020    5525 10000.0    0.00    0.00********
FORCE   2021002  5500030    5525  10.000   0.000    0.00    0.00
FORCE   2021002  5500030    5525  10.000    0.00   0.000    0.00
FORCE   2021002  5500030    5525  10.000    0.00    0.00   0.000
MOMENT  2021002  5500030    5525 10000.0   0.000    0.00    0.00
MOMENT  2021002  5500030    5525 10000.0    0.00   0.011    0.00
MOMENT  2021002  5500030    5525 10000.0    0.00    0.00   0.001
FORCE   2021002  5500040    5535  10.000-496.362    0.00    0.00
FORCE   2021002  5500040    5535  10.000    0.00 253.008    0.00
FORCE   2021002  5500040    5535  10.000    0.00    0.003917.041
MOMENT  2021002  5500040    5535 10000.0********    0.00    0.00
MOMENT  2021002  5500040    5535 10000.0    0.00-439.010    0.00
MOMENT  2021002  5500040    5535 10000.0    0.00    0.002103.371
FORCE   2021002  5500050    5535  10.000  47.000    0.00    0.00
FORCE   2021002  5500050    5535  10.000    0.00 -32.331    0.00
FORCE   2021002  5500050    5535  10.000    0.00    0.00-364.008
MOMENT  2021002  5500050    5535 10000.0-131.677    0.00    0.00
MOMENT  2021002  5500050    5535 10000.0    0.00  92.473    0.00
MOMENT  2021002  5500050    5535 10000.0    0.00    0.00 -19.079
FORCE   2021002  5500060    5535  10.000   87.92    0.00    0.00
FORCE   2021002  5500060    5535  10.000    0.00  -54.00    0.00
FORCE   2021002  5500060    5535  10.000    0.00    0.00 -650.24
MOMENT  2021002  5500060    5535 10000.0 -397.59    0.00    0.00
MOMENT  2021002  5500060    5535 10000.0    0.00   95.44    0.00
MOMENT  2021002  5500060    5535 10000.0    0.00    0.00  -46.13
FORCE   2021002  5500070    5535  10.000   90.85    0.00    0.00
FORCE   2021002  5500070    5535  10.000    0.00  -48.82    0.00
FORCE   2021002  5500070    5535  10.000    0.00    0.00 -638.06
MOMENT  2021002  5500070    5535 10000.0 -371.89    0.00    0.00
MOMENT  2021002  5500070    5535 10000.0    0.00  130.06    0.00
MOMENT  2021002  5500070    5535 10000.0    0.00    0.00  -56.06
FORCE   2021002  5500080    5535  10.000  107.61    0.00    0.00
FORCE   2021002  5500080    5535  10.000    0.00  -52.48    0.00
FORCE   2021002  5500080    5535  10.000    0.00    0.00 -798.40
MOMENT  2021002  5500080    5535 10000.0 -628.79    0.00    0.00
MOMENT  2021002  5500080    5535 10000.0    0.00  144.89    0.00
MOMENT  2021002  5500080    5535 10000.0    0.00    0.00  -87.87
FORCE   2021002  5500090    5535  10.000   68.08    0.00    0.00
FORCE   2021002  5500090    5535  10.000    0.00  -30.72    0.00
FORCE   2021002  5500090    5535  10.000    0.00    0.00 -561.23
MOMENT  2021002  5500090    5535 10000.0 -332.29    0.00    0.00
MOMENT  2021002  5500090    5535 10000.0    0.00   92.46    0.00
MOMENT  2021002  5500090    5535 10000.0    0.00    0.00  -42.49
FORCE   2021002  5500100    5535  10.000   51.13    0.00    0.00
FORCE   2021002  5500100    5535  10.000    0.00  -22.39    0.00
FORCE   2021002  5500100    5535  10.000    0.00    0.00 -481.81
MOMENT  2021002  5500100    5535 10000.0 -288.53    0.00    0.00
MOMENT  2021002  5500100    5535 10000.0    0.00   51.32    0.00
MOMENT  2021002  5500100    5535 10000.0    0.00    0.00  -31.09
FORCE   2021002  5500110    5535  10.000  24.129    0.00    0.00
FORCE   2021002  5500110    5535  10.000    0.00  -9.344    0.00
FORCE   2021002  5500110    5535  10.000    0.00    0.00-253.266
MOMENT  2021002  5500110    5535 10000.0-102.179    0.00    0.00
MOMENT  2021002  5500110    5535 10000.0    0.00   5.716    0.00
MOMENT  2021002  5500110    5535 10000.0    0.00    0.00 -10.035
FORCE   2021002  5500120    5535  10.000   5.664    0.00    0.00
FORCE   2021002  5500120    5535  10.000    0.00  -1.823    0.00
FORCE   2021002  5500120    5535  10.000    0.00    0.00 -62.826
MOMENT  2021002  5500120    5535 10000.0 -22.835    0.00    0.00
MOMENT  2021002  5500120    5535 10000.0    0.00 -19.171    0.00
MOMENT  2021002  5500120    5535 10000.0    0.00    0.00  -1.464
$
$
$##########################################################################################
$# LOAD CASE: FFLZM3904T          
$# MSC.NASTRAN SUBCASE: 210030
$# SUBTITLE:  FLZ0EH             
$##########################################################################################
$
$ ------- ________ -------- ________ -------- ________ -------- ________ -------- 
$
$ HTP
$
$ ------- ________ -------- ________ -------- ________ -------- ________ -------- 
$
$ HTP ELEV RIGHT
$
FORCE   1021003 50420001    5706  10.000    0.00    0.00   -0.00
FORCE   1021003 50420002    5706  10.000    0.00    0.00   -0.00
FORCE   1021003 50420003    5706  10.000    0.00    0.00   -0.00
FORCE   1021003 50420004    5706  10.000    0.00    0.00   -0.00
FORCE   1021003 50420005    5706  10.000    0.00    0.00   -0.00
FORCE   1021003 50420006    5706  10.000    0.00    0.00   -0.00
FORCE   1021003 50420007    5706  10.000    0.00    0.00   -0.00
FORCE   1021003 50420008    5706  10.000    0.00    0.00   -0.00
FORCE   1021003 50420009    5706  10.000    0.00    0.00   -0.00
$
$ HTP ELEV LEFT
$
FORCE   1021003 55420001    5806  10.000    0.00    0.00   -0.00
FORCE   1021003 55420002    5806  10.000    0.00    0.00   -0.00
FORCE   1021003 55420003    5806  10.000    0.00    0.00   -0.00
FORCE   1021003 55420004    5806  10.000    0.00    0.00   -0.00
FORCE   1021003 55420005    5806  10.000    0.00    0.00   -0.00
FORCE   1021003 55420006    5806  10.000    0.00    0.00   -0.00
FORCE   1021003 55420007    5806  10.000    0.00    0.00   -0.00
FORCE   1021003 55420008    5806  10.000    0.00    0.00   -0.00
FORCE   1021003 55420009    5806  10.000    0.00    0.00   -0.00
$
$ HTP BOX RIGHT
$
FORCE   2021003  5000010    5425  10.000  17.729    0.00    0.00
FORCE   2021003  5000010    5425  10.000    0.00   5.990    0.00
FORCE   2021003  5000010    5425  10.000    0.00    0.00-128.650
MOMENT  2021003  5000010    5425 10000.0 -30.709    0.00    0.00
MOMENT  2021003  5000010    5425 10000.0    0.00  -9.927    0.00
MOMENT  2021003  5000010    5425 10000.0    0.00    0.00  -4.600
FORCE   2021003  5000020    5425  10.000 158.134    0.00    0.00
FORCE   2021003  5000020    5425  10.000    0.00 170.128    0.00
FORCE   2021003  5000020    5425  10.000    0.00    0.00********
MOMENT  2021003  5000020    5425 10000.0********    0.00    0.00
MOMENT  2021003  5000020    5425 10000.0    0.005712.819    0.00
MOMENT  2021003  5000020    5425 10000.0    0.00    0.00  -8.810
FORCE   2021003  5000030    5425  10.000   0.000    0.00    0.00
FORCE   2021003  5000030    5425  10.000    0.00   0.000    0.00
FORCE   2021003  5000030    5425  10.000    0.00    0.00   0.000
MOMENT  2021003  5000030    5425 10000.0   0.000    0.00    0.00
MOMENT  2021003  5000030    5425 10000.0    0.00   0.000    0.00
MOMENT  2021003  5000030    5425 10000.0    0.00    0.00   0.000
FORCE   2021003  5000040    5435  10.000 -38.458    0.00    0.00
FORCE   2021003  5000040    5435  10.000    0.00  -0.032    0.00
FORCE   2021003  5000040    5435  10.000    0.00    0.002192.067
MOMENT  2021003  5000040    5435 10000.0********    0.00    0.00
MOMENT  2021003  5000040    5435 10000.0    0.00-592.974    0.00
MOMENT  2021003  5000040    5435 10000.0    0.00    0.00 -16.122
FORCE   2021003  5000050    5435  10.000  15.887    0.00    0.00
FORCE   2021003  5000050    5435  10.000    0.00   0.648    0.00
FORCE   2021003  5000050    5435  10.000    0.00    0.00-198.644
MOMENT  2021003  5000050    5435 10000.0-114.422    0.00    0.00
MOMENT  2021003  5000050    5435 10000.0    0.00  46.936    0.00
MOMENT  2021003  5000050    5435 10000.0    0.00    0.00  -7.753
FORCE   2021003  5000060    5435  10.000   20.58    0.00    0.00
FORCE   2021003  5000060    5435  10.000    0.00    0.66    0.00
FORCE   2021003  5000060    5435  10.000    0.00    0.00 -375.42
MOMENT  2021003  5000060    5435 10000.0 -396.82    0.00    0.00
MOMENT  2021003  5000060    5435 10000.0    0.00  214.83    0.00
MOMENT  2021003  5000060    5435 10000.0    0.00    0.00  -18.10
FORCE   2021003  5000070    5435  10.000   11.70    0.00    0.00
FORCE   2021003  5000070    5435  10.000    0.00    0.09    0.00
FORCE   2021003  5000070    5435  10.000    0.00    0.00 -314.36
MOMENT  2021003  5000070    5435 10000.0 -260.23    0.00    0.00
MOMENT  2021003  5000070    5435 10000.0    0.00  108.43    0.00
MOMENT  2021003  5000070    5435 10000.0    0.00    0.00   -6.33
FORCE   2021003  5000080    5435  10.000    5.34    0.00    0.00
FORCE   2021003  5000080    5435  10.000    0.00   -0.41    0.00
FORCE   2021003  5000080    5435  10.000    0.00    0.00 -399.99
MOMENT  2021003  5000080    5435 10000.0 -410.78    0.00    0.00
MOMENT  2021003  5000080    5435 10000.0    0.00  100.38    0.00
MOMENT  2021003  5000080    5435 10000.0    0.00    0.00   -1.16
FORCE   2021003  5000090    5435  10.000   -1.88    0.00    0.00
FORCE   2021003  5000090    5435  10.000    0.00   -0.57    0.00
FORCE   2021003  5000090    5435  10.000    0.00    0.00 -311.05
MOMENT  2021003  5000090    5435 10000.0 -244.72    0.00    0.00
MOMENT  2021003  5000090    5435 10000.0    0.00   54.39    0.00
MOMENT  2021003  5000090    5435 10000.0    0.00    0.00    3.58
FORCE   2021003  5000100    5435  10.000   -6.72    0.00    0.00
FORCE   2021003  5000100    5435  10.000    0.00   -0.41    0.00
FORCE   2021003  5000100    5435  10.000    0.00    0.00 -355.74
MOMENT  2021003  5000100    5435 10000.0 -263.11    0.00    0.00
MOMENT  2021003  5000100    5435 10000.0    0.00   45.03    0.00
MOMENT  2021003  5000100    5435 10000.0    0.00    0.00    6.64
FORCE   2021003  5000110    5435  10.000  -5.335    0.00    0.00
FORCE   2021003  5000110    5435  10.000    0.00   0.324    0.00
FORCE   2021003  5000110    5435  10.000    0.00    0.00-204.708
MOMENT  2021003  5000110    5435 10000.0 -80.374    0.00    0.00
MOMENT  2021003  5000110    5435 10000.0    0.00   8.722    0.00
MOMENT  2021003  5000110    5435 10000.0    0.00    0.00   2.386
FORCE   2021003  5000120    5435  10.000  -1.120    0.00    0.00
FORCE   2021003  5000120    5435  10.000    0.00  -0.312    0.00
FORCE   2021003  5000120    5435  10.000    0.00    0.00 -32.169
MOMENT  2021003  5000120    5435 10000.0 -14.357    0.00    0.00
MOMENT  2021003  5000120    5435 10000.0    0.00  14.259    0.00
MOMENT  2021003  5000120    5435 10000.0    0.00    0.00   0.414
$
$ HTP BOX LEFT
$
FORCE   2021003  5500010    5525  10.000 -17.972    0.00    0.00
FORCE   2021003  5500010    5525  10.000    0.00  -6.420    0.00
FORCE   2021003  5500010    5525  10.000    0.00    0.00-127.573
MOMENT  2021003  5500010    5525 10000.0 -31.279    0.00    0.00
MOMENT  2021003  5500010    5525 10000.0    0.00  10.000    0.00
MOMENT  2021003  5500010    5525 10000.0    0.00    0.00   3.870
FORCE   2021003  5500020    5525  10.000-187.682    0.00    0.00
FORCE   2021003  5500020    5525  10.000    0.00  26.169    0.00
FORCE   2021003  5500020    5525  10.000    0.00    0.00********
MOMENT  2021003  5500020    5525 10000.0********    0.00    0.00
MOMENT  2021003  5500020    5525 10000.0    0.00********    0.00
MOMENT  2021003  5500020    5525 10000.0    0.00    0.00 413.880
FORCE   2021003  5500030    5525  10.000   0.000    0.00    0.00
FORCE   2021003  5500030    5525  10.000    0.00   0.000    0.00
FORCE   2021003  5500030    5525  10.000    0.00    0.00   0.000
MOMENT  2021003  5500030    5525 10000.0   0.000    0.00    0.00
MOMENT  2021003  5500030    5525 10000.0    0.00   0.000    0.00
MOMENT  2021003  5500030    5525 10000.0    0.00    0.00   0.000
FORCE   2021003  5500040    5535  10.000 121.514    0.00    0.00
FORCE   2021003  5500040    5535  10.000    0.00  89.984    0.00
FORCE   2021003  5500040    5535  10.000    0.00    0.002134.869
MOMENT  2021003  5500040    5535 10000.0********    0.00    0.00
MOMENT  2021003  5500040    5535 10000.0    0.00 575.155    0.00
MOMENT  2021003  5500040    5535 10000.0    0.00    0.00-366.473
FORCE   2021003  5500050    5535  10.000 -25.940    0.00    0.00
FORCE   2021003  5500050    5535  10.000    0.00 -13.234    0.00
FORCE   2021003  5500050    5535  10.000    0.00    0.00-189.083
MOMENT  2021003  5500050    5535 10000.0-110.593    0.00    0.00
MOMENT  2021003  5500050    5535 10000.0    0.00 -44.157    0.00
MOMENT  2021003  5500050    5535 10000.0    0.00    0.00  16.351
FORCE   2021003  5500060    5535  10.000  -38.56    0.00    0.00
FORCE   2021003  5500060    5535  10.000    0.00  -21.42    0.00
FORCE   2021003  5500060    5535  10.000    0.00    0.00 -356.00
MOMENT  2021003  5500060    5535 10000.0 -379.88    0.00    0.00
MOMENT  2021003  5500060    5535 10000.0    0.00 -203.74    0.00
MOMENT  2021003  5500060    5535 10000.0    0.00    0.00   48.80
FORCE   2021003  5500070    5535  10.000  -25.85    0.00    0.00
FORCE   2021003  5500070    5535  10.000    0.00  -15.51    0.00
FORCE   2021003  5500070    5535  10.000    0.00    0.00 -298.83
MOMENT  2021003  5500070    5535 10000.0 -250.37    0.00    0.00
MOMENT  2021003  5500070    5535 10000.0    0.00 -103.54    0.00
MOMENT  2021003  5500070    5535 10000.0    0.00    0.00   22.72
FORCE   2021003  5500080    5535  10.000  -20.81    0.00    0.00
FORCE   2021003  5500080    5535  10.000    0.00  -15.89    0.00
FORCE   2021003  5500080    5535  10.000    0.00    0.00 -386.44
MOMENT  2021003  5500080    5535 10000.0 -401.12    0.00    0.00
MOMENT  2021003  5500080    5535 10000.0    0.00  -98.64    0.00
MOMENT  2021003  5500080    5535 10000.0    0.00    0.00   19.58
FORCE   2021003  5500090    5535  10.000   -8.13    0.00    0.00
FORCE   2021003  5500090    5535  10.000    0.00   -9.93    0.00
FORCE   2021003  5500090    5535  10.000    0.00    0.00 -306.80
MOMENT  2021003  5500090    5535 10000.0 -243.78    0.00    0.00
MOMENT  2021003  5500090    5535 10000.0    0.00  -54.80    0.00
MOMENT  2021003  5500090    5535 10000.0    0.00    0.00    5.17
FORCE   2021003  5500100    5535  10.000   -2.98    0.00    0.00
FORCE   2021003  5500100    5535  10.000    0.00   -9.13    0.00
FORCE   2021003  5500100    5535  10.000    0.00    0.00 -356.95
MOMENT  2021003  5500100    5535 10000.0 -265.92    0.00    0.00
MOMENT  2021003  5500100    5535 10000.0    0.00  -46.02    0.00
MOMENT  2021003  5500100    5535 10000.0    0.00    0.00    1.07
FORCE   2021003  5500110    5535  10.000   0.307    0.00    0.00
FORCE   2021003  5500110    5535  10.000    0.00  -3.922    0.00
FORCE   2021003  5500110    5535  10.000    0.00    0.00-207.748
MOMENT  2021003  5500110    5535 10000.0 -82.045    0.00    0.00
MOMENT  2021003  5500110    5535 10000.0    0.00  -9.650    0.00
MOMENT  2021003  5500110    5535 10000.0    0.00    0.00  -0.427
FORCE   2021003  5500120    5535  10.000   0.451    0.00    0.00
FORCE   2021003  5500120    5535  10.000    0.00  -0.951    0.00
FORCE   2021003  5500120    5535  10.000    0.00    0.00 -33.017
MOMENT  2021003  5500120    5535 10000.0 -14.865    0.00    0.00
MOMENT  2021003  5500120    5535 10000.0    0.00 -14.603    0.00
MOMENT  2021003  5500120    5535 10000.0    0.00    0.00   0.150
$
$
$##########################################################################################
$# LOAD CASE: FFRAM12007          
$# MSC.NASTRAN SUBCASE: 210040
$# SUBTITLE:  FRA0EX             
$##########################################################################################
$
$ ------- ________ -------- ________ -------- ________ -------- ________ -------- 
$
$ HTP
$
$ ------- ________ -------- ________ -------- ________ -------- ________ -------- 
$
$ HTP ELEV RIGHT
$
FORCE   1021004 50420001    5706  10.000    0.00    0.00  -68.18
FORCE   1021004 50420002    5706  10.000    0.00    0.00  -16.55
FORCE   1021004 50420003    5706  10.000    0.00    0.00  -32.59
FORCE   1021004 50420004    5706  10.000    0.00    0.00  -16.32
FORCE   1021004 50420005    5706  10.000    0.00    0.00  -78.97
FORCE   1021004 50420006    5706  10.000    0.00    0.00  -85.33
FORCE   1021004 50420007    5706  10.000    0.00    0.00  -70.98
FORCE   1021004 50420008    5706  10.000    0.00    0.00  -37.79
FORCE   1021004 50420009    5706  10.000    0.00    0.00  -25.89
$
$ HTP ELEV LEFT
$
FORCE   1021004 55420001    5806  10.000    0.00    0.00  -68.18
FORCE   1021004 55420002    5806  10.000    0.00    0.00  -16.55
FORCE   1021004 55420003    5806  10.000    0.00    0.00  -32.59
FORCE   1021004 55420004    5806  10.000    0.00    0.00  -16.32
FORCE   1021004 55420005    5806  10.000    0.00    0.00  -78.97
FORCE   1021004 55420006    5806  10.000    0.00    0.00  -85.33
FORCE   1021004 55420007    5806  10.000    0.00    0.00  -70.98
FORCE   1021004 55420008    5806  10.000    0.00    0.00  -37.79
FORCE   1021004 55420009    5806  10.000    0.00    0.00  -25.89
$
$ HTP BOX RIGHT
$
FORCE   2021004  5000010    5425  10.000  14.736    0.00    0.00
FORCE   2021004  5000010    5425  10.000    0.00  -0.102    0.00
FORCE   2021004  5000010    5425  10.000    0.00    0.00 -47.898
MOMENT  2021004  5000010    5425 10000.0 -12.508    0.00    0.00
MOMENT  2021004  5000010    5425 10000.0    0.00  -1.893    0.00
MOMENT  2021004  5000010    5425 10000.0    0.00    0.00  -3.845
FORCE   2021004  5000020    5425  10.000 185.731    0.00    0.00
FORCE   2021004  5000020    5425  10.000    0.00 188.904    0.00
FORCE   2021004  5000020    5425  10.000    0.00    0.00-396.204
MOMENT  2021004  5000020    5425 10000.0-659.551    0.00    0.00
MOMENT  2021004  5000020    5425 10000.0    0.001494.801    0.00
MOMENT  2021004  5000020    5425 10000.0    0.00    0.00-173.945
FORCE   2021004  5000030    5425  10.000   0.000    0.00    0.00
FORCE   2021004  5000030    5425  10.000    0.00   0.000    0.00
FORCE   2021004  5000030    5425  10.000    0.00    0.00   0.000
MOMENT  2021004  5000030    5425 10000.0   0.000    0.00    0.00
MOMENT  2021004  5000030    5425 10000.0    0.00  -0.043    0.00
MOMENT  2021004  5000030    5425 10000.0    0.00    0.00  -0.004
FORCE   2021004  5000040    5435  10.000 -53.719    0.00    0.00
FORCE   2021004  5000040    5435  10.000    0.00-210.887    0.00
FORCE   2021004  5000040    5435  10.000    0.00    0.00 328.348
MOMENT  2021004  5000040    5435 10000.01086.579    0.00    0.00
MOMENT  2021004  5000040    5435 10000.0    0.00********    0.00
MOMENT  2021004  5000040    5435 10000.0    0.00    0.00 177.235
FORCE   2021004  5000050    5435  10.000  19.573    0.00    0.00
FORCE   2021004  5000050    5435  10.000    0.00  28.707    0.00
FORCE   2021004  5000050    5435  10.000    0.00    0.00 -30.824
MOMENT  2021004  5000050    5435 10000.0  -7.056    0.00    0.00
MOMENT  2021004  5000050    5435 10000.0    0.00  13.005    0.00
MOMENT  2021004  5000050    5435 10000.0    0.00    0.00 -15.002
FORCE   2021004  5000060    5435  10.000   18.32    0.00    0.00
FORCE   2021004  5000060    5435  10.000    0.00   50.19    0.00
FORCE   2021004  5000060    5435  10.000    0.00    0.00  -41.94
MOMENT  2021004  5000060    5435 10000.0  -93.26    0.00    0.00
MOMENT  2021004  5000060    5435 10000.0    0.00  132.38    0.00
MOMENT  2021004  5000060    5435 10000.0    0.00    0.00  -27.34
FORCE   2021004  5000070    5435  10.000   13.71    0.00    0.00
FORCE   2021004  5000070    5435  10.000    0.00   48.98    0.00
FORCE   2021004  5000070    5435  10.000    0.00    0.00   -2.26
MOMENT  2021004  5000070    5435 10000.0  -61.50    0.00    0.00
MOMENT  2021004  5000070    5435 10000.0    0.00   97.91    0.00
MOMENT  2021004  5000070    5435 10000.0    0.00    0.00  -22.31
FORCE   2021004  5000080    5435  10.000   12.80    0.00    0.00
FORCE   2021004  5000080    5435  10.000    0.00   49.34    0.00
FORCE   2021004  5000080    5435  10.000    0.00    0.00   16.19
MOMENT  2021004  5000080    5435 10000.0  -65.90    0.00    0.00
MOMENT  2021004  5000080    5435 10000.0    0.00  111.79    0.00
MOMENT  2021004  5000080    5435 10000.0    0.00    0.00  -24.10
FORCE   2021004  5000090    5435  10.000    7.32    0.00    0.00
FORCE   2021004  5000090    5435  10.000    0.00   23.77    0.00
FORCE   2021004  5000090    5435  10.000    0.00    0.00   49.29
MOMENT  2021004  5000090    5435 10000.0  -11.06    0.00    0.00
MOMENT  2021004  5000090    5435 10000.0    0.00   42.53    0.00
MOMENT  2021004  5000090    5435 10000.0    0.00    0.00  -11.36
FORCE   2021004  5000100    5435  10.000    4.99    0.00    0.00
FORCE   2021004  5000100    5435  10.000    0.00   10.91    0.00
FORCE   2021004  5000100    5435  10.000    0.00    0.00   71.87
MOMENT  2021004  5000100    5435 10000.0   43.23    0.00    0.00
MOMENT  2021004  5000100    5435 10000.0    0.00   12.65    0.00
MOMENT  2021004  5000100    5435 10000.0    0.00    0.00   -6.85
FORCE   2021004  5000110    5435  10.000  -0.813    0.00    0.00
FORCE   2021004  5000110    5435  10.000    0.00   0.775    0.00
FORCE   2021004  5000110    5435  10.000    0.00    0.00  28.102
MOMENT  2021004  5000110    5435 10000.0   3.399    0.00    0.00
MOMENT  2021004  5000110    5435 10000.0    0.00  20.672    0.00
MOMENT  2021004  5000110    5435 10000.0    0.00    0.00  -0.027
FORCE   2021004  5000120    5435  10.000  -0.874    0.00    0.00
FORCE   2021004  5000120    5435  10.000    0.00  -0.627    0.00
FORCE   2021004  5000120    5435  10.000    0.00    0.00  13.294
MOMENT  2021004  5000120    5435 10000.0   2.919    0.00    0.00
MOMENT  2021004  5000120    5435 10000.0    0.00  -0.517    0.00
MOMENT  2021004  5000120    5435 10000.0    0.00    0.00  -0.053
$
$ HTP BOX LEFT
$
FORCE   2021004  5500010    5525  10.000 -14.734    0.00    0.00
FORCE   2021004  5500010    5525  10.000    0.00   0.102    0.00
FORCE   2021004  5500010    5525  10.000    0.00    0.00 -47.896
MOMENT  2021004  5500010    5525 10000.0 -12.477    0.00    0.00
MOMENT  2021004  5500010    5525 10000.0    0.00   1.890    0.00
MOMENT  2021004  5500010    5525 10000.0    0.00    0.00   3.841
FORCE   2021004  5500020    5525  10.000-185.464    0.00    0.00
FORCE   2021004  5500020    5525  10.000    0.00 190.109    0.00
FORCE   2021004  5500020    5525  10.000    0.00    0.00-397.406
MOMENT  2021004  5500020    5525 10000.0-664.555    0.00    0.00
MOMENT  2021004  5500020    5525 10000.0    0.00********    0.00
MOMENT  2021004  5500020    5525 10000.0    0.00    0.00 171.095
FORCE   2021004  5500030    5525  10.000   0.000    0.00    0.00
FORCE   2021004  5500030    5525  10.000    0.00   0.000    0.00
FORCE   2021004  5500030    5525  10.000    0.00    0.00   0.000
MOMENT  2021004  5500030    5525 10000.0   0.000    0.00    0.00
MOMENT  2021004  5500030    5525 10000.0    0.00   0.043    0.00
MOMENT  2021004  5500030    5525 10000.0    0.00    0.00   0.004
FORCE   2021004  5500040    5535  10.000  53.065    0.00    0.00
FORCE   2021004  5500040    5535  10.000    0.00-211.454    0.00
FORCE   2021004  5500040    5535  10.000    0.00    0.00 329.597
MOMENT  2021004  5500040    5535 10000.01091.354    0.00    0.00
MOMENT  2021004  5500040    5535 10000.0    0.001051.987    0.00
MOMENT  2021004  5500040    5535 10000.0    0.00    0.00-174.572
FORCE   2021004  5500050    5535  10.000 -19.441    0.00    0.00
FORCE   2021004  5500050    5535  10.000    0.00  28.871    0.00
FORCE   2021004  5500050    5535  10.000    0.00    0.00 -31.022
MOMENT  2021004  5500050    5535 10000.0  -7.112    0.00    0.00
MOMENT  2021004  5500050    5535 10000.0    0.00 -13.006    0.00
MOMENT  2021004  5500050    5535 10000.0    0.00    0.00  14.919
FORCE   2021004  5500060    5535  10.000  -18.18    0.00    0.00
FORCE   2021004  5500060    5535  10.000    0.00   50.33    0.00
FORCE   2021004  5500060    5535  10.000    0.00    0.00  -42.20
MOMENT  2021004  5500060    5535 10000.0  -93.38    0.00    0.00
MOMENT  2021004  5500060    5535 10000.0    0.00 -132.35    0.00
MOMENT  2021004  5500060    5535 10000.0    0.00    0.00   27.12
FORCE   2021004  5500070    5535  10.000  -13.61    0.00    0.00
FORCE   2021004  5500070    5535  10.000    0.00   49.06    0.00
FORCE   2021004  5500070    5535  10.000    0.00    0.00   -2.46
MOMENT  2021004  5500070    5535 10000.0  -61.60    0.00    0.00
MOMENT  2021004  5500070    5535 10000.0    0.00  -97.88    0.00
MOMENT  2021004  5500070    5535 10000.0    0.00    0.00   22.19
FORCE   2021004  5500080    5535  10.000  -12.69    0.00    0.00
FORCE   2021004  5500080    5535  10.000    0.00   49.41    0.00
FORCE   2021004  5500080    5535  10.000    0.00    0.00   15.97
MOMENT  2021004  5500080    5535 10000.0  -66.06    0.00    0.00
MOMENT  2021004  5500080    5535 10000.0    0.00 -111.76    0.00
MOMENT  2021004  5500080    5535 10000.0    0.00    0.00   23.97
FORCE   2021004  5500090    5535  10.000   -7.25    0.00    0.00
FORCE   2021004  5500090    5535  10.000    0.00   23.81    0.00
FORCE   2021004  5500090    5535  10.000    0.00    0.00   49.13
MOMENT  2021004  5500090    5535 10000.0  -11.14    0.00    0.00
MOMENT  2021004  5500090    5535 10000.0    0.00  -42.51    0.00
MOMENT  2021004  5500090    5535 10000.0    0.00    0.00   11.29
FORCE   2021004  5500100    5535  10.000   -4.92    0.00    0.00
FORCE   2021004  5500100    5535  10.000    0.00   10.96    0.00
FORCE   2021004  5500100    5535  10.000    0.00    0.00   71.74
MOMENT  2021004  5500100    5535 10000.0   43.17    0.00    0.00
MOMENT  2021004  5500100    5535 10000.0    0.00  -12.63    0.00
MOMENT  2021004  5500100    5535 10000.0    0.00    0.00    6.80
FORCE   2021004  5500110    5535  10.000   0.834    0.00    0.00
FORCE   2021004  5500110    5535  10.000    0.00   0.783    0.00
FORCE   2021004  5500110    5535  10.000    0.00    0.00  28.036
MOMENT  2021004  5500110    5535 10000.0   3.375    0.00    0.00
MOMENT  2021004  5500110    5535 10000.0    0.00 -20.664    0.00
MOMENT  2021004  5500110    5535 10000.0    0.00    0.00   0.014
FORCE   2021004  5500120    5535  10.000   0.879    0.00    0.00
FORCE   2021004  5500120    5535  10.000    0.00  -0.625    0.00
FORCE   2021004  5500120    5535  10.000    0.00    0.00  13.276
MOMENT  2021004  5500120    5535 10000.0   2.912    0.00    0.00
MOMENT  2021004  5500120    5535 10000.0    0.00   0.509    0.00
MOMENT  2021004  5500120    5535 10000.0    0.00    0.00   0.049
$
$
$##########################################################################################
$# LOAD CASE: FFROM10003          
$# MSC.NASTRAN SUBCASE: 210050
$# SUBTITLE:  FRO0K7             
$##########################################################################################
$
$ ------- ________ -------- ________ -------- ________ -------- ________ -------- 
$
$ HTP
$
$ ------- ________ -------- ________ -------- ________ -------- ________ -------- 
$
$ HTP ELEV RIGHT
$
FORCE   1021005 50420001    5706  10.000    0.00    0.00 -316.39
FORCE   1021005 50420002    5706  10.000    0.00    0.00  -76.79
FORCE   1021005 50420003    5706  10.000    0.00    0.00 -151.21
FORCE   1021005 50420004    5706  10.000    0.00    0.00  -75.72
FORCE   1021005 50420005    5706  10.000    0.00    0.00 -366.44
FORCE   1021005 50420006    5706  10.000    0.00    0.00 -395.93
FORCE   1021005 50420007    5706  10.000    0.00    0.00 -329.38
FORCE   1021005 50420008    5706  10.000    0.00    0.00 -175.33
FORCE   1021005 50420009    5706  10.000    0.00    0.00 -120.16
$
$ HTP ELEV LEFT
$
FORCE   1021005 55420001    5806  10.000    0.00    0.00 -316.39
FORCE   1021005 55420002    5806  10.000    0.00    0.00  -76.79
FORCE   1021005 55420003    5806  10.000    0.00    0.00 -151.21
FORCE   1021005 55420004    5806  10.000    0.00    0.00  -75.72
FORCE   1021005 55420005    5806  10.000    0.00    0.00 -366.44
FORCE   1021005 55420006    5806  10.000    0.00    0.00 -395.93
FORCE   1021005 55420007    5806  10.000    0.00    0.00 -329.38
FORCE   1021005 55420008    5806  10.000    0.00    0.00 -175.33
FORCE   1021005 55420009    5806  10.000    0.00    0.00 -120.16
$
$ HTP BOX RIGHT
$
FORCE   2021005  5000010    5425  10.000   0.790    0.00    0.00
FORCE   2021005  5000010    5425  10.000    0.00  -0.091    0.00
FORCE   2021005  5000010    5425  10.000    0.00    0.00  25.500
MOMENT  2021005  5000010    5425 10000.0   6.642    0.00    0.00
MOMENT  2021005  5000010    5425 10000.0    0.00  -0.510    0.00
MOMENT  2021005  5000010    5425 10000.0    0.00    0.00  -0.238
FORCE   2021005  5000020    5425  10.000  30.341    0.00    0.00
FORCE   2021005  5000020    5425  10.000    0.00 577.008    0.00
FORCE   2021005  5000020    5425  10.000    0.00    0.00********
MOMENT  2021005  5000020    5425 10000.0********    0.00    0.00
MOMENT  2021005  5000020    5425 10000.0    0.00********    0.00
MOMENT  2021005  5000020    5425 10000.0    0.00    0.001311.700
FORCE   2021005  5000030    5425  10.000   0.000    0.00    0.00
FORCE   2021005  5000030    5425  10.000    0.00   0.000    0.00
FORCE   2021005  5000030    5425  10.000    0.00    0.00   0.000
MOMENT  2021005  5000030    5425 10000.0   0.000    0.00    0.00
MOMENT  2021005  5000030    5425 10000.0    0.00  -0.193    0.00
MOMENT  2021005  5000030    5425 10000.0    0.00    0.00   0.004
FORCE   2021005  5000040    5435  10.000 243.373    0.00    0.00
FORCE   2021005  5000040    5435  10.000    0.00 -23.613    0.00
FORCE   2021005  5000040    5435  10.000    0.00    0.005315.910
MOMENT  2021005  5000040    5435 10000.0********    0.00    0.00
MOMENT  2021005  5000040    5435 10000.0    0.00********    0.00
MOMENT  2021005  5000040    5435 10000.0    0.00    0.00********
FORCE   2021005  5000050    5435  10.000-107.093    0.00    0.00
FORCE   2021005  5000050    5435  10.000    0.00  -3.844    0.00
FORCE   2021005  5000050    5435  10.000    0.00    0.00-248.505
MOMENT  2021005  5000050    5435 10000.0  19.026    0.00    0.00
MOMENT  2021005  5000050    5435 10000.0    0.00-207.198    0.00
MOMENT  2021005  5000050    5435 10000.0    0.00    0.00 137.492
FORCE   2021005  5000060    5435  10.000 -121.62    0.00    0.00
FORCE   2021005  5000060    5435  10.000    0.00   -2.81    0.00
FORCE   2021005  5000060    5435  10.000    0.00    0.00 -663.51
MOMENT  2021005  5000060    5435 10000.0 -446.19    0.00    0.00
MOMENT  2021005  5000060    5435 10000.0    0.00   54.24    0.00
MOMENT  2021005  5000060    5435 10000.0    0.00    0.00  162.65
FORCE   2021005  5000070    5435  10.000 -139.87    0.00    0.00
FORCE   2021005  5000070    5435  10.000    0.00   -5.41    0.00
FORCE   2021005  5000070    5435  10.000    0.00    0.00 -655.16
MOMENT  2021005  5000070    5435 10000.0 -503.86    0.00    0.00
MOMENT  2021005  5000070    5435 10000.0    0.00  -13.37    0.00
MOMENT  2021005  5000070    5435 10000.0    0.00    0.00  159.10
FORCE   2021005  5000080    5435  10.000 -157.42    0.00    0.00
FORCE   2021005  5000080    5435  10.000    0.00   -5.88    0.00
FORCE   2021005  5000080    5435  10.000    0.00    0.00 -841.31
MOMENT  2021005  5000080    5435 10000.0 -851.51    0.00    0.00
MOMENT  2021005  5000080    5435 10000.0    0.00   23.07    0.00
MOMENT  2021005  5000080    5435 10000.0    0.00    0.00  181.26
FORCE   2021005  5000090    5435  10.000 -120.79    0.00    0.00
FORCE   2021005  5000090    5435  10.000    0.00   -5.91    0.00
FORCE   2021005  5000090    5435  10.000    0.00    0.00 -472.58
MOMENT  2021005  5000090    5435 10000.0 -365.49    0.00    0.00
MOMENT  2021005  5000090    5435 10000.0    0.00  -89.89    0.00
MOMENT  2021005  5000090    5435 10000.0    0.00    0.00  103.48
FORCE   2021005  5000100    5435  10.000 -101.03    0.00    0.00
FORCE   2021005  5000100    5435  10.000    0.00   -5.59    0.00
FORCE   2021005  5000100    5435  10.000    0.00    0.00 -264.92
MOMENT  2021005  5000100    5435 10000.0 -103.58    0.00    0.00
MOMENT  2021005  5000100    5435 10000.0    0.00 -115.17    0.00
MOMENT  2021005  5000100    5435 10000.0    0.00    0.00  101.37
FORCE   2021005  5000110    5435  10.000  -8.777    0.00    0.00
FORCE   2021005  5000110    5435  10.000    0.00   1.027    0.00
FORCE   2021005  5000110    5435  10.000    0.00    0.00-192.674
MOMENT  2021005  5000110    5435 10000.0-104.803    0.00    0.00
MOMENT  2021005  5000110    5435 10000.0    0.00  50.284    0.00
MOMENT  2021005  5000110    5435 10000.0    0.00    0.00   4.587
FORCE   2021005  5000120    5435  10.000  -1.627    0.00    0.00
FORCE   2021005  5000120    5435  10.000    0.00   0.194    0.00
FORCE   2021005  5000120    5435  10.000    0.00    0.00 -37.738
MOMENT  2021005  5000120    5435 10000.0 -15.479    0.00    0.00
MOMENT  2021005  5000120    5435 10000.0    0.00  15.757    0.00
MOMENT  2021005  5000120    5435 10000.0    0.00    0.00   0.714
$
$ HTP BOX LEFT
$
FORCE   2021005  5500010    5525  10.000  -0.744    0.00    0.00
FORCE   2021005  5500010    5525  10.000    0.00   0.099    0.00
FORCE   2021005  5500010    5525  10.000    0.00    0.00  25.546
MOMENT  2021005  5500010    5525 10000.0   6.761    0.00    0.00
MOMENT  2021005  5500010    5525 10000.0    0.00   0.500    0.00
MOMENT  2021005  5500010    5525 10000.0    0.00    0.00   0.163
FORCE   2021005  5500020    5525  10.000 -26.349    0.00    0.00
FORCE   2021005  5500020    5525  10.000    0.00 581.376    0.00
FORCE   2021005  5500020    5525  10.000    0.00    0.00********
MOMENT  2021005  5500020    5525 10000.0********    0.00    0.00
MOMENT  2021005  5500020    5525 10000.0    0.00********    0.00
MOMENT  2021005  5500020    5525 10000.0    0.00    0.00********
FORCE   2021005  5500030    5525  10.000   0.000    0.00    0.00
FORCE   2021005  5500030    5525  10.000    0.00   0.000    0.00
FORCE   2021005  5500030    5525  10.000    0.00    0.00   0.000
MOMENT  2021005  5500030    5525 10000.0   0.000    0.00    0.00
MOMENT  2021005  5500030    5525 10000.0    0.00   0.193    0.00
MOMENT  2021005  5500030    5525 10000.0    0.00    0.00  -0.004
FORCE   2021005  5500040    5535  10.000-248.566    0.00    0.00
FORCE   2021005  5500040    5535  10.000    0.00 -24.432    0.00
FORCE   2021005  5500040    5535  10.000    0.00    0.005326.073
MOMENT  2021005  5500040    5535 10000.0********    0.00    0.00
MOMENT  2021005  5500040    5535 10000.0    0.002547.253    0.00
MOMENT  2021005  5500040    5535 10000.0    0.00    0.001107.948
FORCE   2021005  5500050    5535  10.000 107.771    0.00    0.00
FORCE   2021005  5500050    5535  10.000    0.00  -3.657    0.00
FORCE   2021005  5500050    5535  10.000    0.00    0.00-253.380
MOMENT  2021005  5500050    5535 10000.0  17.171    0.00    0.00
MOMENT  2021005  5500050    5535 10000.0    0.00 208.300    0.00
MOMENT  2021005  5500050    5535 10000.0    0.00    0.00-137.995
FORCE   2021005  5500060    5535  10.000  122.58    0.00    0.00
FORCE   2021005  5500060    5535  10.000    0.00   -2.55    0.00
FORCE   2021005  5500060    5535  10.000    0.00    0.00 -668.13
MOMENT  2021005  5500060    5535 10000.0 -448.45    0.00    0.00
MOMENT  2021005  5500060    5535 10000.0    0.00  -53.58    0.00
MOMENT  2021005  5500060    5535 10000.0    0.00    0.00 -163.79
FORCE   2021005  5500070    5535  10.000  140.64    0.00    0.00
FORCE   2021005  5500070    5535  10.000    0.00   -5.28    0.00
FORCE   2021005  5500070    5535  10.000    0.00    0.00 -657.56
MOMENT  2021005  5500070    5535 10000.0 -505.33    0.00    0.00
MOMENT  2021005  5500070    5535 10000.0    0.00   13.23    0.00
MOMENT  2021005  5500070    5535 10000.0    0.00    0.00 -159.86
FORCE   2021005  5500080    5535  10.000  158.40    0.00    0.00
FORCE   2021005  5500080    5535  10.000    0.00   -5.78    0.00
FORCE   2021005  5500080    5535  10.000    0.00    0.00 -842.22
MOMENT  2021005  5500080    5535 10000.0 -852.07    0.00    0.00
MOMENT  2021005  5500080    5535 10000.0    0.00  -23.28    0.00
MOMENT  2021005  5500080    5535 10000.0    0.00    0.00 -182.35
FORCE   2021005  5500090    5535  10.000  121.51    0.00    0.00
FORCE   2021005  5500090    5535  10.000    0.00   -5.86    0.00
FORCE   2021005  5500090    5535  10.000    0.00    0.00 -472.18
MOMENT  2021005  5500090    5535 10000.0 -365.13    0.00    0.00
MOMENT  2021005  5500090    5535 10000.0    0.00   89.84    0.00
MOMENT  2021005  5500090    5535 10000.0    0.00    0.00 -104.09
FORCE   2021005  5500100    5535  10.000  101.81    0.00    0.00
FORCE   2021005  5500100    5535  10.000    0.00   -5.55    0.00
FORCE   2021005  5500100    5535  10.000    0.00    0.00 -263.78
MOMENT  2021005  5500100    5535 10000.0 -102.70    0.00    0.00
MOMENT  2021005  5500100    5535 10000.0    0.00  115.22    0.00
MOMENT  2021005  5500100    5535 10000.0    0.00    0.00 -101.97
FORCE   2021005  5500110    5535  10.000   9.015    0.00    0.00
FORCE   2021005  5500110    5535  10.000    0.00   1.075    0.00
FORCE   2021005  5500110    5535  10.000    0.00    0.00-191.743
MOMENT  2021005  5500110    5535 10000.0-104.398    0.00    0.00
MOMENT  2021005  5500110    5535 10000.0    0.00 -50.207    0.00
MOMENT  2021005  5500110    5535 10000.0    0.00    0.00  -4.709
FORCE   2021005  5500120    5535  10.000   1.692    0.00    0.00
FORCE   2021005  5500120    5535  10.000    0.00   0.200    0.00
FORCE   2021005  5500120    5535  10.000    0.00    0.00 -37.563
MOMENT  2021005  5500120    5535 10000.0 -15.389    0.00    0.00
MOMENT  2021005  5500120    5535 10000.0    0.00 -15.667    0.00
MOMENT  2021005  5500120    5535 10000.0    0.00    0.00  -0.746
$
$
$##########################################################################################
$# LOAD CASE: FFZ1M20FAC          
$# MSC.NASTRAN SUBCASE: 210060
$# SUBTITLE:  FZ10KJ             
$##########################################################################################
$
$ ------- ________ -------- ________ -------- ________ -------- ________ -------- 
$
$ HTP
$
$ ------- ________ -------- ________ -------- ________ -------- ________ -------- 
$
$ HTP ELEV RIGHT
$
FORCE   1021006 50420001    5706  10.000    0.00    0.00  -55.01
FORCE   1021006 50420002    5706  10.000    0.00    0.00  -13.35
FORCE   1021006 50420003    5706  10.000    0.00    0.00  -26.29
FORCE   1021006 50420004    5706  10.000    0.00    0.00  -13.17
FORCE   1021006 50420005    5706  10.000    0.00    0.00  -63.71
FORCE   1021006 50420006    5706  10.000    0.00    0.00  -68.84
FORCE   1021006 50420007    5706  10.000    0.00    0.00  -57.27
FORCE   1021006 50420008    5706  10.000    0.00    0.00  -30.49
FORCE   1021006 50420009    5706  10.000    0.00    0.00  -20.89
$
$ HTP ELEV LEFT
$
FORCE   1021006 55420001    5806  10.000    0.00    0.00  -55.01
FORCE   1021006 55420002    5806  10.000    0.00    0.00  -13.35
FORCE   1021006 55420003    5806  10.000    0.00    0.00  -26.29
FORCE   1021006 55420004    5806  10.000    0.00    0.00  -13.17
FORCE   1021006 55420005    5806  10.000    0.00    0.00  -63.71
FORCE   1021006 55420006    5806  10.000    0.00    0.00  -68.84
FORCE   1021006 55420007    5806  10.000    0.00    0.00  -57.27
FORCE   1021006 55420008    5806  10.000    0.00    0.00  -30.49
FORCE   1021006 55420009    5806  10.000    0.00    0.00  -20.89
$
$ HTP BOX RIGHT
$
FORCE   2021006  5000010    5425  10.000  27.276    0.00    0.00
FORCE   2021006  5000010    5425  10.000    0.00  -0.011    0.00
FORCE   2021006  5000010    5425  10.000    0.00    0.00-435.360
MOMENT  2021006  5000010    5425 10000.0-116.129    0.00    0.00
MOMENT  2021006  5000010    5425 10000.0    0.00  11.054    0.00
MOMENT  2021006  5000010    5425 10000.0    0.00    0.00  -7.278
FORCE   2021006  5000020    5425  10.000 280.646    0.00    0.00
FORCE   2021006  5000020    5425  10.000    0.00  -0.283    0.00
FORCE   2021006  5000020    5425  10.000    0.00    0.00********
MOMENT  2021006  5000020    5425 10000.0********    0.00    0.00
MOMENT  2021006  5000020    5425 10000.0    0.008242.025    0.00
MOMENT  2021006  5000020    5425 10000.0    0.00    0.00-858.003
FORCE   2021006  5000030    5425  10.000   0.000    0.00    0.00
FORCE   2021006  5000030    5425  10.000    0.00   0.000    0.00
FORCE   2021006  5000030    5425  10.000    0.00    0.00   0.000
MOMENT  2021006  5000030    5425 10000.0   0.000    0.00    0.00
MOMENT  2021006  5000030    5425 10000.0    0.00  -0.034    0.00
MOMENT  2021006  5000030    5425 10000.0    0.00    0.00  -0.005
FORCE   2021006  5000040    5435  10.000-214.174    0.00    0.00
FORCE   2021006  5000040    5435  10.000    0.00 371.176    0.00
FORCE   2021006  5000040    5435  10.000    0.00    0.005254.862
MOMENT  2021006  5000040    5435 10000.0********    0.00    0.00
MOMENT  2021006  5000040    5435 10000.0    0.00 531.168    0.00
MOMENT  2021006  5000040    5435 10000.0    0.00    0.00 663.444
FORCE   2021006  5000050    5435  10.000  44.458    0.00    0.00
FORCE   2021006  5000050    5435  10.000    0.00 -47.703    0.00
FORCE   2021006  5000050    5435  10.000    0.00    0.00-683.930
MOMENT  2021006  5000050    5435 10000.0  20.254    0.00    0.00
MOMENT  2021006  5000050    5435 10000.0    0.00-655.793    0.00
MOMENT  2021006  5000050    5435 10000.0    0.00    0.00  23.696
FORCE   2021006  5000060    5435  10.000   61.12    0.00    0.00
FORCE   2021006  5000060    5435  10.000    0.00  -85.53    0.00
FORCE   2021006  5000060    5435  10.000    0.00    0.00-1192.97
MOMENT  2021006  5000060    5435 10000.0 -647.30    0.00    0.00
MOMENT  2021006  5000060    5435 10000.0    0.00 -311.60    0.00
MOMENT  2021006  5000060    5435 10000.0    0.00    0.00  -26.57
FORCE   2021006  5000070    5435  10.000   52.27    0.00    0.00
FORCE   2021006  5000070    5435  10.000    0.00  -79.36    0.00
FORCE   2021006  5000070    5435  10.000    0.00    0.00-1056.80
MOMENT  2021006  5000070    5435 10000.0 -641.32    0.00    0.00
MOMENT  2021006  5000070    5435 10000.0    0.00 -126.16    0.00
MOMENT  2021006  5000070    5435 10000.0    0.00    0.00  -36.13
FORCE   2021006  5000080    5435  10.000   51.15    0.00    0.00
FORCE   2021006  5000080    5435  10.000    0.00  -79.62    0.00
FORCE   2021006  5000080    5435  10.000    0.00    0.00-1044.34
MOMENT  2021006  5000080    5435 10000.0 -865.37    0.00    0.00
MOMENT  2021006  5000080    5435 10000.0    0.00  -30.71    0.00
MOMENT  2021006  5000080    5435 10000.0    0.00    0.00  -51.55
FORCE   2021006  5000090    5435  10.000   29.07    0.00    0.00
FORCE   2021006  5000090    5435  10.000    0.00  -40.92    0.00
FORCE   2021006  5000090    5435  10.000    0.00    0.00 -516.89
MOMENT  2021006  5000090    5435 10000.0 -354.85    0.00    0.00
MOMENT  2021006  5000090    5435 10000.0    0.00   14.13    0.00
MOMENT  2021006  5000090    5435 10000.0    0.00    0.00  -28.05
FORCE   2021006  5000100    5435  10.000   17.62    0.00    0.00
FORCE   2021006  5000100    5435  10.000    0.00  -22.51    0.00
FORCE   2021006  5000100    5435  10.000    0.00    0.00 -261.20
MOMENT  2021006  5000100    5435 10000.0 -179.39    0.00    0.00
MOMENT  2021006  5000100    5435 10000.0    0.00   39.39    0.00
MOMENT  2021006  5000100    5435 10000.0    0.00    0.00  -22.39
FORCE   2021006  5000110    5435  10.000   3.333    0.00    0.00
FORCE   2021006  5000110    5435  10.000    0.00  -9.970    0.00
FORCE   2021006  5000110    5435  10.000    0.00    0.00-126.631
MOMENT  2021006  5000110    5435 10000.0 -66.605    0.00    0.00
MOMENT  2021006  5000110    5435 10000.0    0.00  29.968    0.00
MOMENT  2021006  5000110    5435 10000.0    0.00    0.00  -4.098
FORCE   2021006  5000120    5435  10.000   0.822    0.00    0.00
FORCE   2021006  5000120    5435  10.000    0.00  -1.974    0.00
FORCE   2021006  5000120    5435  10.000    0.00    0.00 -26.102
MOMENT  2021006  5000120    5435 10000.0 -11.723    0.00    0.00
MOMENT  2021006  5000120    5435 10000.0    0.00  12.005    0.00
MOMENT  2021006  5000120    5435 10000.0    0.00    0.00  -1.280
$
$ HTP BOX LEFT
$
FORCE   2021006  5500010    5525  10.000 -27.282    0.00    0.00
FORCE   2021006  5500010    5525  10.000    0.00   0.011    0.00
FORCE   2021006  5500010    5525  10.000    0.00    0.00-435.438
MOMENT  2021006  5500010    5525 10000.0-116.257    0.00    0.00
MOMENT  2021006  5500010    5525 10000.0    0.00 -11.050    0.00
MOMENT  2021006  5500010    5525 10000.0    0.00    0.00   7.285
FORCE   2021006  5500020    5525  10.000-280.869    0.00    0.00
FORCE   2021006  5500020    5525  10.000    0.00   0.280    0.00
FORCE   2021006  5500020    5525  10.000    0.00    0.00********
MOMENT  2021006  5500020    5525 10000.0********    0.00    0.00
MOMENT  2021006  5500020    5525 10000.0    0.00********    0.00
MOMENT  2021006  5500020    5525 10000.0    0.00    0.00 857.793
FORCE   2021006  5500030    5525  10.000   0.000    0.00    0.00
FORCE   2021006  5500030    5525  10.000    0.00   0.000    0.00
FORCE   2021006  5500030    5525  10.000    0.00    0.00   0.000
MOMENT  2021006  5500030    5525 10000.0   0.000    0.00    0.00
MOMENT  2021006  5500030    5525 10000.0    0.00   0.034    0.00
MOMENT  2021006  5500030    5525 10000.0    0.00    0.00   0.005
FORCE   2021006  5500040    5535  10.000 214.095    0.00    0.00
FORCE   2021006  5500040    5535  10.000    0.00 370.681    0.00
FORCE   2021006  5500040    5535  10.000    0.00    0.005255.612
MOMENT  2021006  5500040    5535 10000.0********    0.00    0.00
MOMENT  2021006  5500040    5535 10000.0    0.00-528.513    0.00
MOMENT  2021006  5500040    5535 10000.0    0.00    0.00-663.391
FORCE   2021006  5500050    5535  10.000 -44.452    0.00    0.00
FORCE   2021006  5500050    5535  10.000    0.00 -47.649    0.00
FORCE   2021006  5500050    5535  10.000    0.00    0.00-683.925
MOMENT  2021006  5500050    5535 10000.0  20.051    0.00    0.00
MOMENT  2021006  5500050    5535 10000.0    0.00 655.544    0.00
MOMENT  2021006  5500050    5535 10000.0    0.00    0.00 -23.660
FORCE   2021006  5500060    5535  10.000  -61.10    0.00    0.00
FORCE   2021006  5500060    5535  10.000    0.00  -85.44    0.00
FORCE   2021006  5500060    5535  10.000    0.00    0.00-1193.16
MOMENT  2021006  5500060    5535 10000.0 -647.86    0.00    0.00
MOMENT  2021006  5500060    5535 10000.0    0.00  310.92    0.00
MOMENT  2021006  5500060    5535 10000.0    0.00    0.00   26.63
FORCE   2021006  5500070    5535  10.000  -52.25    0.00    0.00
FORCE   2021006  5500070    5535  10.000    0.00  -79.27    0.00
FORCE   2021006  5500070    5535  10.000    0.00    0.00-1057.00
MOMENT  2021006  5500070    5535 10000.0 -641.71    0.00    0.00
MOMENT  2021006  5500070    5535 10000.0    0.00  125.64    0.00
MOMENT  2021006  5500070    5535 10000.0    0.00    0.00   36.17
FORCE   2021006  5500080    5535  10.000  -51.13    0.00    0.00
FORCE   2021006  5500080    5535  10.000    0.00  -79.50    0.00
FORCE   2021006  5500080    5535  10.000    0.00    0.00-1044.69
MOMENT  2021006  5500080    5535 10000.0 -865.99    0.00    0.00
MOMENT  2021006  5500080    5535 10000.0    0.00   30.16    0.00
MOMENT  2021006  5500080    5535 10000.0    0.00    0.00   51.59
FORCE   2021006  5500090    5535  10.000  -29.06    0.00    0.00
FORCE   2021006  5500090    5535  10.000    0.00  -40.85    0.00
FORCE   2021006  5500090    5535  10.000    0.00    0.00 -517.15
MOMENT  2021006  5500090    5535 10000.0 -355.21    0.00    0.00
MOMENT  2021006  5500090    5535 10000.0    0.00  -14.47    0.00
MOMENT  2021006  5500090    5535 10000.0    0.00    0.00   28.08
FORCE   2021006  5500100    5535  10.000  -17.61    0.00    0.00
FORCE   2021006  5500100    5535  10.000    0.00  -22.46    0.00
FORCE   2021006  5500100    5535  10.000    0.00    0.00 -261.15
MOMENT  2021006  5500100    5535 10000.0 -179.45    0.00    0.00
MOMENT  2021006  5500100    5535 10000.0    0.00  -39.63    0.00
MOMENT  2021006  5500100    5535 10000.0    0.00    0.00   22.41
FORCE   2021006  5500110    5535  10.000  -3.326    0.00    0.00
FORCE   2021006  5500110    5535  10.000    0.00  -9.945    0.00
FORCE   2021006  5500110    5535  10.000    0.00    0.00-126.472
MOMENT  2021006  5500110    5535 10000.0 -66.564    0.00    0.00
MOMENT  2021006  5500110    5535 10000.0    0.00 -30.035    0.00
MOMENT  2021006  5500110    5535 10000.0    0.00    0.00   4.100
FORCE   2021006  5500120    5535  10.000  -0.821    0.00    0.00
FORCE   2021006  5500120    5535  10.000    0.00  -1.968    0.00
FORCE   2021006  5500120    5535  10.000    0.00    0.00 -26.057
MOMENT  2021006  5500120    5535 10000.0 -11.714    0.00    0.00
MOMENT  2021006  5500120    5535 10000.0    0.00 -12.003    0.00
MOMENT  2021006  5500120    5535 10000.0    0.00    0.00   1.278
$
$
$##########################################################################################
$# LOAD CASE: FFZ3M20FAC          
$# MSC.NASTRAN SUBCASE: 210070
$# SUBTITLE:  FZ30MF             
$##########################################################################################
$
$ ------- ________ -------- ________ -------- ________ -------- ________ -------- 
$
$ HTP
$
$ ------- ________ -------- ________ -------- ________ -------- ________ -------- 
$
$ HTP ELEV RIGHT
$
FORCE   1021007 50420001    5706  10.000    0.00    0.00  -26.90
FORCE   1021007 50420002    5706  10.000    0.00    0.00   -6.53
FORCE   1021007 50420003    5706  10.000    0.00    0.00  -12.86
FORCE   1021007 50420004    5706  10.000    0.00    0.00   -6.44
FORCE   1021007 50420005    5706  10.000    0.00    0.00  -31.16
FORCE   1021007 50420006    5706  10.000    0.00    0.00  -33.66
FORCE   1021007 50420007    5706  10.000    0.00    0.00  -28.01
FORCE   1021007 50420008    5706  10.000    0.00    0.00  -14.91
FORCE   1021007 50420009    5706  10.000    0.00    0.00  -10.22
$
$ HTP ELEV LEFT
$
FORCE   1021007 55420001    5806  10.000    0.00    0.00  -26.90
FORCE   1021007 55420002    5806  10.000    0.00    0.00   -6.53
FORCE   1021007 55420003    5806  10.000    0.00    0.00  -12.86
FORCE   1021007 55420004    5806  10.000    0.00    0.00   -6.44
FORCE   1021007 55420005    5806  10.000    0.00    0.00  -31.16
FORCE   1021007 55420006    5806  10.000    0.00    0.00  -33.66
FORCE   1021007 55420007    5806  10.000    0.00    0.00  -28.01
FORCE   1021007 55420008    5806  10.000    0.00    0.00  -14.91
FORCE   1021007 55420009    5806  10.000    0.00    0.00  -10.22
$
$ HTP BOX RIGHT
$
FORCE   2021007  5000010    5425  10.000  11.281    0.00    0.00
FORCE   2021007  5000010    5425  10.000    0.00  -0.071    0.00
FORCE   2021007  5000010    5425  10.000    0.00    0.00-131.728
MOMENT  2021007  5000010    5425 10000.0 -35.160    0.00    0.00
MOMENT  2021007  5000010    5425 10000.0    0.00   3.060    0.00
MOMENT  2021007  5000010    5425 10000.0    0.00    0.00  -3.014
FORCE   2021007  5000020    5425  10.000 103.683    0.00    0.00
FORCE   2021007  5000020    5425  10.000    0.00  -0.634    0.00
FORCE   2021007  5000020    5425  10.000    0.00    0.00-390.219
MOMENT  2021007  5000020    5425 10000.0 293.023    0.00    0.00
MOMENT  2021007  5000020    5425 10000.0    0.00 863.728    0.00
MOMENT  2021007  5000020    5425 10000.0    0.00    0.00-288.334
FORCE   2021007  5000030    5425  10.000   0.000    0.00    0.00
FORCE   2021007  5000030    5425  10.000    0.00   0.000    0.00
FORCE   2021007  5000030    5425  10.000    0.00    0.00   0.000
MOMENT  2021007  5000030    5425 10000.0   0.000    0.00    0.00
MOMENT  2021007  5000030    5425 10000.0    0.00  -0.017    0.00
MOMENT  2021007  5000030    5425 10000.0    0.00    0.00  -0.002
FORCE   2021007  5000040    5435  10.000 -77.856    0.00    0.00
FORCE   2021007  5000040    5435  10.000    0.00 -22.600    0.00
FORCE   2021007  5000040    5435  10.000    0.00    0.00 203.653
MOMENT  2021007  5000040    5435 10000.0 -25.028    0.00    0.00
MOMENT  2021007  5000040    5435 10000.0    0.00-928.980    0.00
MOMENT  2021007  5000040    5435 10000.0    0.00    0.00 321.074
FORCE   2021007  5000050    5435  10.000  17.463    0.00    0.00
FORCE   2021007  5000050    5435  10.000    0.00  -5.135    0.00
FORCE   2021007  5000050    5435  10.000    0.00    0.00-113.164
MOMENT  2021007  5000050    5435 10000.0 -74.883    0.00    0.00
MOMENT  2021007  5000050    5435 10000.0    0.00  58.560    0.00
MOMENT  2021007  5000050    5435 10000.0    0.00    0.00 -21.303
FORCE   2021007  5000060    5435  10.000   24.60    0.00    0.00
FORCE   2021007  5000060    5435  10.000    0.00   -0.77    0.00
FORCE   2021007  5000060    5435  10.000    0.00    0.00 -108.95
MOMENT  2021007  5000060    5435 10000.0 -161.53    0.00    0.00
MOMENT  2021007  5000060    5435 10000.0    0.00  169.45    0.00
MOMENT  2021007  5000060    5435 10000.0    0.00    0.00  -39.22
FORCE   2021007  5000070    5435  10.000   21.16    0.00    0.00
FORCE   2021007  5000070    5435  10.000    0.00    4.76    0.00
FORCE   2021007  5000070    5435  10.000    0.00    0.00  -21.05
MOMENT  2021007  5000070    5435 10000.0  -81.10    0.00    0.00
MOMENT  2021007  5000070    5435 10000.0    0.00  135.85    0.00
MOMENT  2021007  5000070    5435 10000.0    0.00    0.00  -32.92
FORCE   2021007  5000080    5435  10.000   19.70    0.00    0.00
FORCE   2021007  5000080    5435  10.000    0.00    8.21    0.00
FORCE   2021007  5000080    5435  10.000    0.00    0.00   28.78
MOMENT  2021007  5000080    5435 10000.0  -63.55    0.00    0.00
MOMENT  2021007  5000080    5435 10000.0    0.00  156.69    0.00
MOMENT  2021007  5000080    5435 10000.0    0.00    0.00  -36.42
FORCE   2021007  5000090    5435  10.000   10.48    0.00    0.00
FORCE   2021007  5000090    5435  10.000    0.00    6.09    0.00
FORCE   2021007  5000090    5435  10.000    0.00    0.00   49.99
MOMENT  2021007  5000090    5435 10000.0  -24.14    0.00    0.00
MOMENT  2021007  5000090    5435 10000.0    0.00   92.42    0.00
MOMENT  2021007  5000090    5435 10000.0    0.00    0.00  -19.11
FORCE   2021007  5000100    5435  10.000    5.52    0.00    0.00
FORCE   2021007  5000100    5435  10.000    0.00    6.21    0.00
FORCE   2021007  5000100    5435  10.000    0.00    0.00   75.29
MOMENT  2021007  5000100    5435 10000.0   22.46    0.00    0.00
MOMENT  2021007  5000100    5435 10000.0    0.00   54.94    0.00
MOMENT  2021007  5000100    5435 10000.0    0.00    0.00  -12.09
FORCE   2021007  5000110    5435  10.000  -0.218    0.00    0.00
FORCE   2021007  5000110    5435  10.000    0.00   3.543    0.00
FORCE   2021007  5000110    5435  10.000    0.00    0.00  39.740
MOMENT  2021007  5000110    5435 10000.0   8.801    0.00    0.00
MOMENT  2021007  5000110    5435 10000.0    0.00  19.227    0.00
MOMENT  2021007  5000110    5435 10000.0    0.00    0.00  -1.597
FORCE   2021007  5000120    5435  10.000  -0.209    0.00    0.00
FORCE   2021007  5000120    5435  10.000    0.00   1.287    0.00
FORCE   2021007  5000120    5435  10.000    0.00    0.00  15.136
MOMENT  2021007  5000120    5435 10000.0   3.920    0.00    0.00
MOMENT  2021007  5000120    5435 10000.0    0.00  -1.793    0.00
MOMENT  2021007  5000120    5435 10000.0    0.00    0.00   0.204
$
$ HTP BOX LEFT
$
FORCE   2021007  5500010    5525  10.000 -11.282    0.00    0.00
FORCE   2021007  5500010    5525  10.000    0.00   0.071    0.00
FORCE   2021007  5500010    5525  10.000    0.00    0.00-131.754
MOMENT  2021007  5500010    5525 10000.0 -35.159    0.00    0.00
MOMENT  2021007  5500010    5525 10000.0    0.00  -3.062    0.00
MOMENT  2021007  5500010    5525 10000.0    0.00    0.00   3.011
FORCE   2021007  5500020    5525  10.000-103.554    0.00    0.00
FORCE   2021007  5500020    5525  10.000    0.00   0.634    0.00
FORCE   2021007  5500020    5525  10.000    0.00    0.00-391.094
MOMENT  2021007  5500020    5525 10000.0 289.496    0.00    0.00
MOMENT  2021007  5500020    5525 10000.0    0.00-865.819    0.00
MOMENT  2021007  5500020    5525 10000.0    0.00    0.00 286.051
FORCE   2021007  5500030    5525  10.000   0.000    0.00    0.00
FORCE   2021007  5500030    5525  10.000    0.00   0.000    0.00
FORCE   2021007  5500030    5525  10.000    0.00    0.00   0.000
MOMENT  2021007  5500030    5525 10000.0   0.000    0.00    0.00
MOMENT  2021007  5500030    5525 10000.0    0.00   0.017    0.00
MOMENT  2021007  5500030    5525 10000.0    0.00    0.00   0.002
FORCE   2021007  5500040    5535  10.000  77.235    0.00    0.00
FORCE   2021007  5500040    5535  10.000    0.00 -23.406    0.00
FORCE   2021007  5500040    5535  10.000    0.00    0.00 204.497
MOMENT  2021007  5500040    5535 10000.0 -21.320    0.00    0.00
MOMENT  2021007  5500040    5535 10000.0    0.00 929.564    0.00
MOMENT  2021007  5500040    5535 10000.0    0.00    0.00-318.937
FORCE   2021007  5500050    5535  10.000 -17.353    0.00    0.00
FORCE   2021007  5500050    5535  10.000    0.00  -4.965    0.00
FORCE   2021007  5500050    5535  10.000    0.00    0.00-113.201
MOMENT  2021007  5500050    5535 10000.0 -74.903    0.00    0.00
MOMENT  2021007  5500050    5535 10000.0    0.00 -58.605    0.00
MOMENT  2021007  5500050    5535 10000.0    0.00    0.00  21.252
FORCE   2021007  5500060    5535  10.000  -24.45    0.00    0.00
FORCE   2021007  5500060    5535  10.000    0.00   -0.55    0.00
FORCE   2021007  5500060    5535  10.000    0.00    0.00 -109.11
MOMENT  2021007  5500060    5535 10000.0 -161.72    0.00    0.00
MOMENT  2021007  5500060    5535 10000.0    0.00 -169.62    0.00
MOMENT  2021007  5500060    5535 10000.0    0.00    0.00   39.09
FORCE   2021007  5500070    5535  10.000  -21.03    0.00    0.00
FORCE   2021007  5500070    5535  10.000    0.00    4.91    0.00
FORCE   2021007  5500070    5535  10.000    0.00    0.00  -21.23
MOMENT  2021007  5500070    5535 10000.0  -81.26    0.00    0.00
MOMENT  2021007  5500070    5535 10000.0    0.00 -135.96    0.00
MOMENT  2021007  5500070    5535 10000.0    0.00    0.00   32.83
FORCE   2021007  5500080    5535  10.000  -19.57    0.00    0.00
FORCE   2021007  5500080    5535  10.000    0.00    8.36    0.00
FORCE   2021007  5500080    5535  10.000    0.00    0.00   28.51
MOMENT  2021007  5500080    5535 10000.0  -63.83    0.00    0.00
MOMENT  2021007  5500080    5535 10000.0    0.00 -156.81    0.00
MOMENT  2021007  5500080    5535 10000.0    0.00    0.00   36.32
FORCE   2021007  5500090    5535  10.000  -10.42    0.00    0.00
FORCE   2021007  5500090    5535  10.000    0.00    6.16    0.00
FORCE   2021007  5500090    5535  10.000    0.00    0.00   49.81
MOMENT  2021007  5500090    5535 10000.0  -24.29    0.00    0.00
MOMENT  2021007  5500090    5535 10000.0    0.00  -92.49    0.00
MOMENT  2021007  5500090    5535 10000.0    0.00    0.00   19.08
FORCE   2021007  5500100    5535  10.000   -5.48    0.00    0.00
FORCE   2021007  5500100    5535  10.000    0.00    6.24    0.00
FORCE   2021007  5500100    5535  10.000    0.00    0.00   75.23
MOMENT  2021007  5500100    5535 10000.0   22.41    0.00    0.00
MOMENT  2021007  5500100    5535 10000.0    0.00  -54.99    0.00
MOMENT  2021007  5500100    5535 10000.0    0.00    0.00   12.07
FORCE   2021007  5500110    5535  10.000   0.229    0.00    0.00
FORCE   2021007  5500110    5535  10.000    0.00   3.553    0.00
FORCE   2021007  5500110    5535  10.000    0.00    0.00  39.757
MOMENT  2021007  5500110    5535 10000.0   8.803    0.00    0.00
MOMENT  2021007  5500110    5535 10000.0    0.00 -19.243    0.00
MOMENT  2021007  5500110    5535 10000.0    0.00    0.00   1.592
FORCE   2021007  5500120    5535  10.000   0.211    0.00    0.00
FORCE   2021007  5500120    5535  10.000    0.00   1.289    0.00
FORCE   2021007  5500120    5535  10.000    0.00    0.00  15.141
MOMENT  2021007  5500120    5535 10000.0   3.920    0.00    0.00
MOMENT  2021007  5500120    5535 10000.0    0.00   1.791    0.00
MOMENT  2021007  5500120    5535 10000.0    0.00    0.00  -0.206
$
$
$##########################################################################################
$# LOAD CASE: FFZFM06FAC          
$# MSC.NASTRAN SUBCASE: 210080
$# SUBTITLE:  FZF0OB             
$##########################################################################################
$
$ ------- ________ -------- ________ -------- ________ -------- ________ -------- 
$
$ HTP
$
$ ------- ________ -------- ________ -------- ________ -------- ________ -------- 
$
$ HTP ELEV RIGHT
$
FORCE   1021008 50420001    5706  10.000    0.00    0.00   -0.00
FORCE   1021008 50420002    5706  10.000    0.00    0.00   -0.00
FORCE   1021008 50420003    5706  10.000    0.00    0.00   -0.00
FORCE   1021008 50420004    5706  10.000    0.00    0.00   -0.00
FORCE   1021008 50420005    5706  10.000    0.00    0.00   -0.00
FORCE   1021008 50420006    5706  10.000    0.00    0.00   -0.00
FORCE   1021008 50420007    5706  10.000    0.00    0.00   -0.00
FORCE   1021008 50420008    5706  10.000    0.00    0.00   -0.00
FORCE   1021008 50420009    5706  10.000    0.00    0.00   -0.00
$
$ HTP ELEV LEFT
$
FORCE   1021008 55420001    5806  10.000    0.00    0.00   -0.00
FORCE   1021008 55420002    5806  10.000    0.00    0.00   -0.00
FORCE   1021008 55420003    5806  10.000    0.00    0.00   -0.00
FORCE   1021008 55420004    5806  10.000    0.00    0.00   -0.00
FORCE   1021008 55420005    5806  10.000    0.00    0.00   -0.00
FORCE   1021008 55420006    5806  10.000    0.00    0.00   -0.00
FORCE   1021008 55420007    5806  10.000    0.00    0.00   -0.00
FORCE   1021008 55420008    5806  10.000    0.00    0.00   -0.00
FORCE   1021008 55420009    5806  10.000    0.00    0.00   -0.00
$
$ HTP BOX RIGHT
$
FORCE   2021008  5000010    5425  10.000   0.722    0.00    0.00
FORCE   2021008  5000010    5425  10.000    0.00   0.108    0.00
FORCE   2021008  5000010    5425  10.000    0.00    0.00-279.150
MOMENT  2021008  5000010    5425 10000.0 -72.795    0.00    0.00
MOMENT  2021008  5000010    5425 10000.0    0.00   1.400    0.00
MOMENT  2021008  5000010    5425 10000.0    0.00    0.00  -0.188
FORCE   2021008  5000020    5425  10.000   4.216    0.00    0.00
FORCE   2021008  5000020    5425  10.000    0.00   0.639    0.00
FORCE   2021008  5000020    5425  10.000    0.00    0.00********
MOMENT  2021008  5000020    5425 10000.0********    0.00    0.00
MOMENT  2021008  5000020    5425 10000.0    0.002281.789    0.00
MOMENT  2021008  5000020    5425 10000.0    0.00    0.00 -10.024
FORCE   2021008  5000030    5425  10.000   0.000    0.00    0.00
FORCE   2021008  5000030    5425  10.000    0.00   0.000    0.00
FORCE   2021008  5000030    5425  10.000    0.00    0.00   0.000
MOMENT  2021008  5000030    5425 10000.0   0.000    0.00    0.00
MOMENT  2021008  5000030    5425 10000.0    0.00   0.000    0.00
MOMENT  2021008  5000030    5425 10000.0    0.00    0.00   0.000
FORCE   2021008  5000040    5435  10.000  -2.570    0.00    0.00
FORCE   2021008  5000040    5435  10.000    0.00 113.615    0.00
FORCE   2021008  5000040    5435  10.000    0.00    0.001247.498
MOMENT  2021008  5000040    5435 10000.04178.745    0.00    0.00
MOMENT  2021008  5000040    5435 10000.0    0.00-260.318    0.00
MOMENT  2021008  5000040    5435 10000.0    0.00    0.00  31.825
FORCE   2021008  5000050    5435  10.000   0.701    0.00    0.00
FORCE   2021008  5000050    5435  10.000    0.00 -30.388    0.00
FORCE   2021008  5000050    5435  10.000    0.00    0.00-333.868
MOMENT  2021008  5000050    5435 10000.0-154.465    0.00    0.00
MOMENT  2021008  5000050    5435 10000.0    0.00  24.796    0.00
MOMENT  2021008  5000050    5435 10000.0    0.00    0.00  -2.526
FORCE   2021008  5000060    5435  10.000    0.62    0.00    0.00
FORCE   2021008  5000060    5435  10.000    0.00  -26.86    0.00
FORCE   2021008  5000060    5435  10.000    0.00    0.00 -295.08
MOMENT  2021008  5000060    5435 10000.0 -263.43    0.00    0.00
MOMENT  2021008  5000060    5435 10000.0    0.00  124.49    0.00
MOMENT  2021008  5000060    5435 10000.0    0.00    0.00  -11.82
FORCE   2021008  5000070    5435  10.000    0.38    0.00    0.00
FORCE   2021008  5000070    5435  10.000    0.00  -16.45    0.00
FORCE   2021008  5000070    5435  10.000    0.00    0.00 -180.70
MOMENT  2021008  5000070    5435 10000.0 -139.68    0.00    0.00
MOMENT  2021008  5000070    5435 10000.0    0.00   51.69    0.00
MOMENT  2021008  5000070    5435 10000.0    0.00    0.00   -4.96
FORCE   2021008  5000080    5435  10.000    0.37    0.00    0.00
FORCE   2021008  5000080    5435  10.000    0.00  -16.19    0.00
FORCE   2021008  5000080    5435  10.000    0.00    0.00 -177.89
MOMENT  2021008  5000080    5435 10000.0 -169.30    0.00    0.00
MOMENT  2021008  5000080    5435 10000.0    0.00   33.60    0.00
MOMENT  2021008  5000080    5435 10000.0    0.00    0.00   -3.38
FORCE   2021008  5000090    5435  10.000    0.22    0.00    0.00
FORCE   2021008  5000090    5435  10.000    0.00   -9.73    0.00
FORCE   2021008  5000090    5435  10.000    0.00    0.00 -106.93
MOMENT  2021008  5000090    5435 10000.0  -78.72    0.00    0.00
MOMENT  2021008  5000090    5435 10000.0    0.00   13.07    0.00
MOMENT  2021008  5000090    5435 10000.0    0.00    0.00   -1.34
FORCE   2021008  5000100    5435  10.000    0.21    0.00    0.00
FORCE   2021008  5000100    5435  10.000    0.00   -9.03    0.00
FORCE   2021008  5000100    5435  10.000    0.00    0.00  -99.19
MOMENT  2021008  5000100    5435 10000.0  -69.77    0.00    0.00
MOMENT  2021008  5000100    5435 10000.0    0.00    8.95    0.00
MOMENT  2021008  5000100    5435 10000.0    0.00    0.00   -0.95
FORCE   2021008  5000110    5435  10.000   0.056    0.00    0.00
FORCE   2021008  5000110    5435  10.000    0.00  -4.357    0.00
FORCE   2021008  5000110    5435  10.000    0.00    0.00 -47.096
MOMENT  2021008  5000110    5435 10000.0 -17.426    0.00    0.00
MOMENT  2021008  5000110    5435 10000.0    0.00   0.892    0.00
MOMENT  2021008  5000110    5435 10000.0    0.00    0.00  -0.088
FORCE   2021008  5000120    5435  10.000   0.014    0.00    0.00
FORCE   2021008  5000120    5435  10.000    0.00  -0.614    0.00
FORCE   2021008  5000120    5435  10.000    0.00    0.00  -6.746
MOMENT  2021008  5000120    5435 10000.0  -3.015    0.00    0.00
MOMENT  2021008  5000120    5435 10000.0    0.00   2.823    0.00
MOMENT  2021008  5000120    5435 10000.0    0.00    0.00  -0.263
$
$ HTP BOX LEFT
$
FORCE   2021008  5500010    5525  10.000  -0.722    0.00    0.00
FORCE   2021008  5500010    5525  10.000    0.00  -0.108    0.00
FORCE   2021008  5500010    5525  10.000    0.00    0.00-279.158
MOMENT  2021008  5500010    5525 10000.0 -72.835    0.00    0.00
MOMENT  2021008  5500010    5525 10000.0    0.00  -1.400    0.00
MOMENT  2021008  5500010    5525 10000.0    0.00    0.00   0.189
FORCE   2021008  5500020    5525  10.000  -4.239    0.00    0.00
FORCE   2021008  5500020    5525  10.000    0.00  -0.639    0.00
FORCE   2021008  5500020    5525  10.000    0.00    0.00********
MOMENT  2021008  5500020    5525 10000.0********    0.00    0.00
MOMENT  2021008  5500020    5525 10000.0    0.00********    0.00
MOMENT  2021008  5500020    5525 10000.0    0.00    0.00  11.858
FORCE   2021008  5500030    5525  10.000   0.000    0.00    0.00
FORCE   2021008  5500030    5525  10.000    0.00   0.000    0.00
FORCE   2021008  5500030    5525  10.000    0.00    0.00   0.000
MOMENT  2021008  5500030    5525 10000.0   0.000    0.00    0.00
MOMENT  2021008  5500030    5525 10000.0    0.00   0.000    0.00
MOMENT  2021008  5500030    5525 10000.0    0.00    0.00   0.000
FORCE   2021008  5500040    5535  10.000   3.046    0.00    0.00
FORCE   2021008  5500040    5535  10.000    0.00 114.453    0.00
FORCE   2021008  5500040    5535  10.000    0.00    0.001247.431
MOMENT  2021008  5500040    5535 10000.04178.606    0.00    0.00
MOMENT  2021008  5500040    5535 10000.0    0.00 260.250    0.00
MOMENT  2021008  5500040    5535 10000.0    0.00    0.00 -33.602
FORCE   2021008  5500050    5535  10.000  -0.827    0.00    0.00
FORCE   2021008  5500050    5535  10.000    0.00 -30.616    0.00
FORCE   2021008  5500050    5535  10.000    0.00    0.00-333.854
MOMENT  2021008  5500050    5535 10000.0-154.502    0.00    0.00
MOMENT  2021008  5500050    5535 10000.0    0.00 -24.774    0.00
MOMENT  2021008  5500050    5535 10000.0    0.00    0.00   2.603
FORCE   2021008  5500060    5535  10.000   -0.73    0.00    0.00
FORCE   2021008  5500060    5535  10.000    0.00  -27.06    0.00
FORCE   2021008  5500060    5535  10.000    0.00    0.00 -295.06
MOMENT  2021008  5500060    5535 10000.0 -263.44    0.00    0.00
MOMENT  2021008  5500060    5535 10000.0    0.00 -124.46    0.00
MOMENT  2021008  5500060    5535 10000.0    0.00    0.00   12.00
FORCE   2021008  5500070    5535  10.000   -0.45    0.00    0.00
FORCE   2021008  5500070    5535  10.000    0.00  -16.57    0.00
FORCE   2021008  5500070    5535  10.000    0.00    0.00 -180.69
MOMENT  2021008  5500070    5535 10000.0 -139.68    0.00    0.00
MOMENT  2021008  5500070    5535 10000.0    0.00  -51.68    0.00
MOMENT  2021008  5500070    5535 10000.0    0.00    0.00    5.05
FORCE   2021008  5500080    5535  10.000   -0.44    0.00    0.00
FORCE   2021008  5500080    5535  10.000    0.00  -16.31    0.00
FORCE   2021008  5500080    5535  10.000    0.00    0.00 -177.88
MOMENT  2021008  5500080    5535 10000.0 -169.30    0.00    0.00
MOMENT  2021008  5500080    5535 10000.0    0.00  -33.59    0.00
MOMENT  2021008  5500080    5535 10000.0    0.00    0.00    3.47
FORCE   2021008  5500090    5535  10.000   -0.27    0.00    0.00
FORCE   2021008  5500090    5535  10.000    0.00   -9.81    0.00
FORCE   2021008  5500090    5535  10.000    0.00    0.00 -106.92
MOMENT  2021008  5500090    5535 10000.0  -78.73    0.00    0.00
MOMENT  2021008  5500090    5535 10000.0    0.00  -13.07    0.00
MOMENT  2021008  5500090    5535 10000.0    0.00    0.00    1.38
FORCE   2021008  5500100    5535  10.000   -0.25    0.00    0.00
FORCE   2021008  5500100    5535  10.000    0.00   -9.10    0.00
FORCE   2021008  5500100    5535  10.000    0.00    0.00  -99.19
MOMENT  2021008  5500100    5535 10000.0  -69.77    0.00    0.00
MOMENT  2021008  5500100    5535 10000.0    0.00   -8.95    0.00
MOMENT  2021008  5500100    5535 10000.0    0.00    0.00    0.99
FORCE   2021008  5500110    5535  10.000  -0.067    0.00    0.00
FORCE   2021008  5500110    5535  10.000    0.00  -4.376    0.00
FORCE   2021008  5500110    5535  10.000    0.00    0.00 -47.094
MOMENT  2021008  5500110    5535 10000.0 -17.427    0.00    0.00
MOMENT  2021008  5500110    5535 10000.0    0.00  -0.892    0.00
MOMENT  2021008  5500110    5535 10000.0    0.00    0.00   0.096
FORCE   2021008  5500120    5535  10.000  -0.017    0.00    0.00
FORCE   2021008  5500120    5535  10.000    0.00  -0.619    0.00
FORCE   2021008  5500120    5535  10.000    0.00    0.00  -6.745
MOMENT  2021008  5500120    5535 10000.0  -3.016    0.00    0.00
MOMENT  2021008  5500120    5535 10000.0    0.00  -2.822    0.00
MOMENT  2021008  5500120    5535 10000.0    0.00    0.00   0.266
$
$
